pglib_opf_case6515_rte.m
%%%%%%%%%%%%%%%%%%%%%%%%%%%%%%%%%%%%%%%%%%%%%%%%%%%%%%%%%%%%%%%%%%%%%%%%%%%
%%%%                                                                  %%%%%
%%%%    IEEE PES Power Grid Library - Optimal Power Flow - v23.07     %%%%%
%%%%          (https://github.com/power-grid-lib/pglib-opf)           %%%%%
%%%%               Benchmark Group - Typical Operations               %%%%%
%%%%                         23 - July - 2023                         %%%%%
%%%%                                                                  %%%%%
%%%%%%%%%%%%%%%%%%%%%%%%%%%%%%%%%%%%%%%%%%%%%%%%%%%%%%%%%%%%%%%%%%%%%%%%%%%
%
%CASE6515RTE
%   AC Power flow data for French system.
%   Please see CASEFORMAT for details on the case file format.
%
%   This case accurately represents the size and complexity of French
%   very high voltage and high voltage transmission network.
%   These data are snapshots of French VHV+HV grid in 2013.
%   These data can be used to validate mathematical methods and tools.
%   These data should NOT be used for operation
%   nor planning of the French or European grids.
%
%   When publishing results using this data, please cite:
%     C. Josz, S. Fliscounakis, J. Maeght, and P. Panciatici,
%     "AC Power Flow Data in MATPOWER and QCQP Format: iTesla, RTE Snapshots, and PEGASE"
%     http://arxiv.org/abs/1603.01533
%
%   Contacts (primary contact for this file : Jean Maeght):
%   Cédric Josz, Stéphane Fliscounakis, Jean Maeght, Patrick Panciatici
%   firstname.lastname@rte-france.com
%   Réseau de Transport d'Electricité (French Transmission System Operator)
%   Département Expertise Système, Immeuble "Le Colbert"
%   9 rue de la Porte de Buc, 78000 Versailles Cedex, France
%   March 4th, 2016
%
%   Copyright (c) 2016 by Cédric Josz, Stéphane Fliscounakis, Jean Maeght,
%   and Patrick Panciatici
%   Licensed under the Creative Commons Attribution 4.0 International license,
%   http://creativecommons.org/licenses/by/4.0/
%
function mpc = pglib_opf_case6515_rte
mpc.version = '2';
mpc.baseMVA = 100.0;

%% bus data
%	bus_i	type	Pd	Qd	Gs	Bs	area	Vm	Va	baseKV	zone	Vmax	Vmin
mpc.bus = [
	1	 1	 0.0	 0.0	 0.0	 0.0	 1	    0.94444	    0.00000	 45.0	 1	    1.00000	    0.88889;
	2	 1	 0.0	 0.0	 0.0	 0.0	 1	    1.00000	    0.00000	 63.0	 1	    1.06349	    0.93651;
	3	 1	 14.8	 3.8	 0.0	 0.0	 1	    1.01588	    0.00000	 63.0	 1	    1.07937	    0.95238;
	4	 1	 49.6	 2.8	 0.0	 0.0	 1	    1.01111	    0.00000	 90.0	 1	    1.08889	    0.93333;
	5	 1	 12.9	 0.9	 0.0	 0.0	 1	    1.00794	    0.00000	 63.0	 1	    1.06349	    0.95238;
	6	 1	 13.0	 5.3	 0.0	 0.0	 1	    1.00000	    0.00000	 63.0	 1	    1.07937	    0.92063;
	7	 1	 2.3	 0.2	 0.0	 0.0	 1	    1.00000	    0.00000	 63.0	 1	    1.07937	    0.92063;
	8	 1	 15.8	 -0.3	 0.0	 0.0	 1	    0.98889	    0.00000	 225.0	 1	    1.08889	    0.88889;
	9	 1	 14.9	 0.0	 0.0	 0.0	 1	    1.00000	    0.00000	 63.0	 1	    1.06349	    0.93651;
	10	 1	 0.0	 0.0	 0.0	 0.0	 1	    1.00000	    0.00000	 90.0	 1	    1.07778	    0.92222;
	11	 1	 33.2	 4.9	 0.0	 0.0	 1	    1.00000	    0.00000	 90.0	 1	    1.07778	    0.92222;
	12	 1	 0.0	 0.0	 0.0	 0.0	 1	    1.01588	    0.00000	 63.0	 1	    1.07937	    0.95238;
	13	 1	 0.0	 0.0	 0.0	 0.0	 1	    1.07767	    0.00000	 380.0	 1	    1.10263	    1.05271;
	14	 1	 63.2	 13.3	 0.0	 30.4	 1	    1.02778	    0.00000	 90.0	 1	    1.07778	    0.97778;
	15	 1	 0.0	 0.0	 0.0	 0.0	 1	    1.00000	    0.00000	 63.0	 1	    1.07937	    0.92063;
	16	 1	 13.9	 1.9	 0.0	 0.0	 1	    1.00000	    0.00000	 63.0	 1	    1.07937	    0.92063;
	17	 1	 10.9	 0.1	 0.0	 0.0	 1	    1.02222	    0.00000	 90.0	 1	    1.06667	    0.97778;
	18	 1	 0.0	 0.0	 0.0	 0.0	 1	    0.94444	    0.00000	 45.0	 1	    1.00000	    0.88889;
	19	 1	 1.0	 0.0	 0.0	 0.0	 1	    1.00000	    0.00000	 63.0	 1	    1.06349	    0.93651;
	20	 1	 5.6	 -18.0	 0.0	 0.0	 1	    0.94444	    0.00000	 45.0	 1	    1.00000	    0.88889;
	21	 1	 7.6	 -1.6	 0.0	 0.0	 1	    1.02222	    0.00000	 90.0	 1	    1.06667	    0.97778;
	22	 1	 18.5	 1.0	 0.0	 0.0	 1	    1.01588	    0.00000	 63.0	 1	    1.07937	    0.95238;
	23	 1	 22.4	 2.2	 0.0	 0.0	 1	    1.00000	    0.00000	 63.0	 1	    1.06349	    0.93651;
	24	 1	 17.0	 -1.5	 0.0	 0.0	 1	    1.03333	    0.00000	 90.0	 1	    1.11111	    0.95556;
	25	 1	 54.7	 -1.1	 0.0	 0.0	 1	    1.02222	    0.00000	 90.0	 1	    1.10000	    0.94444;
	26	 1	 15.1	 10.6	 0.0	 0.0	 1	    1.02222	    0.00000	 90.0	 1	    1.06667	    0.97778;
	27	 1	 0.0	 0.0	 0.0	 0.0	 1	    1.04444	    0.00000	 225.0	 1	    1.08444	    1.00444;
	28	 1	 0.9	 -0.2	 0.0	 0.0	 1	    1.01588	    0.00000	 63.0	 1	    1.07937	    0.95238;
	29	 1	 76.5	 9.4	 0.0	 0.0	 1	    1.01587	    0.00000	 63.0	 1	    1.06349	    0.96825;
	30	 1	 39.9	 3.5	 0.0	 0.0	 1	    1.01111	    0.00000	 90.0	 1	    1.08889	    0.93333;
	31	 1	 0.0	 0.0	 0.0	 0.0	 1	    1.00000	    0.00000	 63.0	 1	    1.06349	    0.93651;
	32	 1	 0.0	 0.0	 0.0	 0.0	 1	    1.00334	    0.00000	 150.0	 1	    1.10667	    0.90000;
	33	 1	 0.0	 0.0	 0.0	 0.0	 1	    1.01111	    0.00000	 225.0	 1	    1.08889	    0.93333;
	34	 1	 0.0	 0.0	 0.0	 0.0	 1	    1.01111	    0.00000	 225.0	 1	    1.08889	    0.93333;
	35	 1	 0.0	 0.0	 0.0	 0.0	 1	    1.07237	    0.00000	 380.0	 1	    1.10526	    1.03947;
	36	 1	 0.0	 0.0	 0.0	 0.0	 1	    1.07237	    0.00000	 380.0	 1	    1.10526	    1.03947;
	37	 1	 -2.7	 3.0	 0.0	 0.0	 1	    1.00000	    0.00000	 63.0	 1	    1.07937	    0.92063;
	38	 1	 5.0	 -1.0	 0.0	 0.0	 1	    1.01587	    0.00000	 63.0	 1	    1.09524	    0.93651;
	39	 1	 43.6	 -2.9	 0.0	 0.0	 1	    1.02778	    0.00000	 90.0	 1	    1.07778	    0.97778;
	40	 1	 38.1	 4.1	 0.0	 0.0	 1	    1.02778	    0.00000	 90.0	 1	    1.07778	    0.97778;
	41	 1	 0.0	 0.0	 0.0	 0.0	 1	    1.04666	    0.00000	 225.0	 1	    1.08889	    1.00444;
	42	 1	 0.0	 0.0	 0.0	 0.0	 1	    1.04169	    0.00000	 63.0	 1	    1.13099	    0.95238;
	43	 1	 3.2	 2.7	 0.0	 0.0	 1	    1.02778	    0.00000	 90.0	 1	    1.07778	    0.97778;
	44	 1	 13.3	 0.1	 0.0	 0.0	 1	    1.00794	    0.00000	 63.0	 1	    1.06349	    0.95238;
	45	 1	 3.8	 1.6	 0.0	 0.0	 1	    1.02222	    0.00000	 90.0	 1	    1.06667	    0.97778;
	46	 1	 0.0	 0.0	 0.0	 0.0	 1	    1.00000	    0.00000	 63.0	 1	    1.06349	    0.93651;
	47	 2	 0.0	 0.0	 0.0	 0.0	 1	    1.00000	    0.00000	 63.0	 1	    1.06349	    0.93651;
	48	 1	 40.4	 5.6	 0.0	 0.0	 1	    1.00000	    0.00000	 90.0	 1	    1.07778	    0.92222;
	49	 1	 9.8	 -1.9	 0.0	 0.0	 1	    1.00000	    0.00000	 63.0	 1	    1.06349	    0.93651;
	50	 1	 0.0	 0.0	 0.0	 0.0	 1	    1.00289	    0.00000	 63.0	 1	    1.06927	    0.93651;
	51	 1	 0.0	 0.0	 0.0	 0.0	 1	    1.01111	    0.00000	 225.0	 1	    1.08889	    0.93333;
	52	 1	 6.5	 2.9	 0.0	 0.0	 1	    1.02222	    0.00000	 90.0	 1	    1.06667	    0.97778;
	53	 1	 0.0	 -1.3	 0.0	 0.0	 1	    1.00000	    0.00000	 63.0	 1	    1.04762	    0.95238;
	54	 1	 0.3	 -0.3	 0.0	 0.0	 1	    1.02222	    0.00000	 90.0	 1	    1.06667	    0.97778;
	55	 1	 50.9	 12.3	 0.0	 0.0	 1	    1.04666	    0.00000	 225.0	 1	    1.08889	    1.00444;
	56	 1	 75.5	 20.5	 0.0	 0.0	 1	    1.04666	    0.00000	 225.0	 1	    1.08889	    1.00444;
	57	 2	 0.0	 0.0	 0.0	 0.0	 1	    1.00000	    0.00000	 63.0	 1	    1.07937	    0.92063;
	58	 1	 154.0	 36.4	 0.0	 0.0	 1	    1.04666	    0.00000	 225.0	 1	    1.08889	    1.00444;
	59	 1	 5.0	 1.0	 0.0	 0.0	 1	    1.01588	    0.00000	 63.0	 1	    1.07937	    0.95238;
	60	 1	 0.0	 0.0	 0.0	 0.0	 1	    1.01588	    0.00000	 63.0	 1	    1.07937	    0.95238;
	61	 1	 46.3	 11.9	 0.0	 0.0	 1	    1.01588	    0.00000	 63.0	 1	    1.07937	    0.95238;
	62	 1	 0.0	 0.0	 0.0	 0.0	 1	    1.01588	    0.00000	 63.0	 1	    1.07937	    0.95238;
	63	 1	 16.8	 2.9	 0.0	 0.0	 1	    1.01588	    0.00000	 63.0	 1	    1.07937	    0.95238;
	64	 1	 67.3	 7.1	 0.0	 0.0	 1	    0.98889	    0.00000	 225.0	 1	    1.08889	    0.88889;
	65	 1	 12.0	 2.8	 0.0	 0.0	 1	    1.01588	    0.00000	 63.0	 1	    1.07937	    0.95238;
	66	 1	 13.0	 -6.4	 0.0	 0.0	 1	    1.00000	    0.00000	 63.0	 1	    1.06349	    0.93651;
	67	 1	 1.0	 0.0	 0.0	 0.0	 1	    1.00000	    0.00000	 63.0	 1	    1.07937	    0.92063;
	68	 1	 53.1	 1.1	 0.0	 0.0	 1	    1.00000	    0.00000	 63.0	 1	    1.06349	    0.93651;
	69	 1	 20.8	 1.3	 0.0	 0.0	 1	    1.00794	    0.00000	 63.0	 1	    1.06349	    0.95238;
	70	 1	 10.6	 4.2	 0.0	 0.0	 1	    1.01588	    0.00000	 63.0	 1	    1.07937	    0.95238;
	71	 1	 69.4	 17.5	 0.0	 0.0	 1	    1.00000	    0.00000	 63.0	 1	    1.04762	    0.95238;
	72	 1	 0.0	 0.0	 0.0	 0.0	 1	    1.04666	    0.00000	 225.0	 1	    1.08889	    1.00444;
	73	 1	 0.0	 0.0	 0.0	 0.0	 1	    1.04666	    0.00000	 225.0	 1	    1.08889	    1.00444;
	74	 1	 58.8	 -5.0	 0.0	 0.0	 1	    0.98889	    0.00000	 225.0	 1	    1.08889	    0.88889;
	75	 1	 25.2	 1.9	 0.0	 0.0	 1	    1.02222	    0.00000	 90.0	 1	    1.06667	    0.97778;
	76	 1	 5.9	 -2.1	 0.0	 0.0	 1	    1.03778	    0.00000	 225.0	 1	    1.08889	    0.98667;
	77	 1	 43.7	 0.4	 0.0	 0.0	 1	    1.00000	    0.00000	 63.0	 1	    1.06349	    0.93651;
	78	 1	 0.0	 0.0	 0.0	 0.0	 1	    1.00000	    0.00000	 63.0	 1	    1.07937	    0.92063;
	79	 1	 0.0	 0.0	 0.0	 0.0	 1	    1.00000	    0.00000	 63.0	 1	    1.04762	    0.95238;
	80	 1	 32.4	 10.5	 0.0	 0.0	 1	    1.04666	    0.00000	 225.0	 1	    1.08889	    1.00444;
	81	 1	 32.4	 9.1	 0.0	 0.0	 1	    1.04666	    0.00000	 225.0	 1	    1.08889	    1.00444;
	82	 1	 11.3	 0.3	 0.0	 0.0	 1	    1.00000	    0.00000	 63.0	 1	    1.06349	    0.93651;
	83	 1	 79.0	 24.8	 0.0	 0.0	 1	    1.04666	    0.00000	 225.0	 1	    1.08889	    1.00444;
	84	 1	 -0.1	 0.4	 0.0	 0.0	 1	    1.00000	    0.00000	 63.0	 1	    1.06349	    0.93651;
	85	 1	 0.7	 -1.5	 0.0	 0.0	 1	    1.00000	    0.00000	 63.0	 1	    1.06349	    0.93651;
	86	 1	 48.8	 5.2	 0.0	 0.0	 1	    1.02222	    0.00000	 90.0	 1	    1.06667	    0.97778;
	87	 1	 0.0	 0.0	 0.0	 0.0	 1	    1.01588	    0.00000	 63.0	 1	    1.07937	    0.95238;
	88	 1	 14.8	 -1.2	 0.0	 0.0	 1	    1.00000	    0.00000	 63.0	 1	    1.06349	    0.93651;
	89	 1	 26.2	 0.3	 0.0	 0.0	 1	    1.02778	    0.00000	 90.0	 1	    1.07778	    0.97778;
	90	 1	 0.2	 -2.3	 0.0	 0.0	 1	    0.94444	    0.00000	 45.0	 1	    1.00000	    0.88889;
	91	 1	 0.0	 0.0	 0.0	 0.0	 1	    0.94444	    0.00000	 45.0	 1	    1.00000	    0.88889;
	92	 1	 31.8	 1.1	 0.0	 0.0	 1	    1.01587	    0.00000	 63.0	 1	    1.06349	    0.96825;
	93	 1	 2.0	 -2.8	 0.0	 0.0	 1	    0.94444	    0.00000	 45.0	 1	    1.00000	    0.88889;
	94	 1	 18.2	 -4.0	 0.0	 0.0	 1	    1.02222	    0.00000	 90.0	 1	    1.06667	    0.97778;
	95	 1	 57.2	 9.4	 0.0	 0.0	 1	    1.02222	    0.00000	 90.0	 1	    1.06667	    0.97778;
	96	 1	 0.9	 -0.2	 0.0	 0.0	 1	    1.00000	    0.00000	 63.0	 1	    1.06349	    0.93651;
	97	 1	 57.7	 3.8	 0.0	 0.0	 1	    1.00000	    0.00000	 63.0	 1	    1.07937	    0.92063;
	98	 1	 9.5	 1.0	 0.0	 0.0	 1	    1.01588	    0.00000	 63.0	 1	    1.07937	    0.95238;
	99	 1	 35.8	 5.9	 0.0	 0.0	 1	    1.01588	    0.00000	 63.0	 1	    1.07937	    0.95238;
	100	 1	 63.0	 7.8	 0.0	 0.0	 1	    1.00000	    0.00000	 63.0	 1	    1.06349	    0.93651;
	101	 1	 17.3	 -0.8	 0.0	 0.0	 1	    1.00000	    0.00000	 63.0	 1	    1.06349	    0.93651;
	102	 2	 0.0	 0.0	 0.0	 0.0	 1	    1.01588	    0.00000	 63.0	 1	    1.07937	    0.95238;
	103	 1	 12.6	 -1.2	 0.0	 0.0	 1	    1.01588	    0.00000	 63.0	 1	    1.07937	    0.95238;
	104	 1	 0.0	 0.0	 0.0	 0.0	 1	    1.03778	    0.00000	 225.0	 1	    1.08889	    0.98667;
	105	 1	 36.9	 2.2	 0.0	 0.0	 1	    0.98889	    0.00000	 225.0	 1	    1.08889	    0.88889;
	106	 1	 58.2	 10.7	 0.0	 0.0	 1	    1.02222	    0.00000	 90.0	 1	    1.10000	    0.94444;
	107	 1	 107.0	 14.3	 0.0	 0.0	 1	    1.04666	    0.00000	 225.0	 1	    1.08444	    1.00889;
	108	 1	 12.2	 -2.4	 0.0	 0.0	 1	    1.02778	    0.00000	 90.0	 1	    1.07778	    0.97778;
	109	 1	 67.8	 8.7	 0.0	 0.0	 1	    1.00000	    0.00000	 63.0	 1	    1.06349	    0.93651;
	110	 1	 0.0	 0.0	 0.0	 0.0	 1	    1.01111	    0.00000	 225.0	 1	    1.08889	    0.93333;
	111	 1	 38.7	 -7.5	 0.0	 0.0	 1	    1.01587	    0.00000	 63.0	 1	    1.06349	    0.96825;
	112	 1	 0.0	 0.0	 0.0	 0.0	 1	    1.00000	    0.00000	 63.0	 1	    1.04762	    0.95238;
	113	 1	 0.0	 0.0	 0.0	 0.0	 1	    1.04666	    0.00000	 225.0	 1	    1.08889	    1.00444;
	114	 1	 13.4	 1.1	 0.0	 0.0	 1	    1.00000	    0.00000	 63.0	 1	    1.06349	    0.93651;
	115	 1	 0.0	 0.0	 0.0	 0.0	 1	    1.07895	    0.00000	 380.0	 1	    1.10526	    1.05263;
	116	 1	 0.0	 0.0	 0.0	 0.0	 1	    1.07895	    0.00000	 380.0	 1	    1.10526	    1.05263;
	117	 1	 14.9	 0.2	 0.0	 0.0	 1	    1.01588	    0.00000	 63.0	 1	    1.07937	    0.95238;
	118	 1	 2.0	 0.7	 0.0	 0.0	 1	    1.02222	    0.00000	 90.0	 1	    1.06667	    0.97778;
	119	 1	 40.6	 6.9	 0.0	 0.0	 1	    1.00000	    0.00000	 63.0	 1	    1.06349	    0.93651;
	120	 1	 22.0	 -2.3	 0.0	 0.0	 1	    1.00000	    0.00000	 63.0	 1	    1.06349	    0.93651;
	121	 1	 20.8	 1.4	 0.0	 0.0	 1	    1.00000	    0.00000	 63.0	 1	    1.07937	    0.92063;
	122	 2	 0.0	 0.0	 0.0	 0.0	 1	    1.01588	    0.00000	 63.0	 1	    1.07937	    0.95238;
	123	 1	 12.0	 4.6	 0.0	 0.0	 1	    1.01588	    0.00000	 63.0	 1	    1.07937	    0.95238;
	124	 1	 8.0	 -0.4	 0.0	 0.0	 1	    1.02222	    0.00000	 90.0	 1	    1.06667	    0.97778;
	125	 1	 11.1	 0.4	 0.0	 0.0	 1	    1.01588	    0.00000	 63.0	 1	    1.07937	    0.95238;
	126	 1	 0.2	 0.8	 0.0	 0.0	 1	    1.00000	    0.00000	 63.0	 1	    1.06349	    0.93651;
	127	 1	 14.7	 2.7	 0.0	 0.0	 1	    1.00000	    0.00000	 63.0	 1	    1.04762	    0.95238;
	128	 1	 13.8	 7.2	 0.0	 0.0	 1	    1.01587	    0.00000	 63.0	 1	    1.06349	    0.96825;
	129	 1	 19.1	 10.8	 0.0	 0.0	 1	    1.01587	    0.00000	 63.0	 1	    1.06349	    0.96825;
	130	 1	 0.0	 0.0	 0.0	 0.0	 1	    1.04666	    0.00000	 225.0	 1	    1.08444	    1.00889;
	131	 1	 119.3	 12.0	 0.0	 0.0	 1	    1.04666	    0.00000	 225.0	 1	    1.08444	    1.00889;
	132	 2	 9.4	 0.0	 0.0	 0.0	 1	    1.00000	    0.00000	 90.0	 1	    1.07778	    0.92222;
	133	 1	 2.7	 0.4	 0.0	 0.0	 1	    1.00000	    0.00000	 63.0	 1	    1.04762	    0.95238;
	134	 1	 101.1	 27.4	 0.0	 0.0	 1	    1.04666	    0.00000	 225.0	 1	    1.08889	    1.00444;
	135	 1	 0.0	 0.0	 0.0	 0.0	 1	    1.04666	    0.00000	 225.0	 1	    1.08889	    1.00444;
	136	 1	 23.9	 1.4	 0.0	 0.0	 1	    1.02778	    0.00000	 90.0	 1	    1.07778	    0.97778;
	137	 2	 8.7	 -3.0	 0.0	 0.0	 1	    1.01587	    0.00000	 63.0	 1	    1.06349	    0.96825;
	138	 1	 0.0	 0.0	 0.0	 0.0	 1	    1.02333	    0.00000	 150.0	 1	    1.08000	    0.96667;
	139	 1	 8.0	 7.1	 0.0	 0.0	 1	    1.00000	    0.00000	 63.0	 1	    1.07937	    0.92063;
	140	 1	 0.0	 0.0	 0.0	 80.0	 1	    1.04445	    0.00000	 225.0	 1	    1.08889	    1.00000;
	141	 1	 0.0	 0.0	 0.0	 0.0	 1	    1.07895	    0.00000	 380.0	 1	    1.10526	    1.05263;
	142	 1	 22.4	 7.4	 0.0	 0.0	 1	    1.01588	    0.00000	 63.0	 1	    1.07937	    0.95238;
	143	 1	 0.0	 0.0	 0.0	 0.0	 1	    1.03778	    0.00000	 225.0	 1	    1.08889	    0.98667;
	144	 1	 16.0	 5.0	 0.0	 0.0	 1	    1.03333	    0.00000	 90.0	 1	    1.11111	    0.95556;
	145	 1	 23.4	 9.0	 0.0	 0.0	 1	    1.02889	    0.00000	 225.0	 1	    1.08889	    0.96889;
	146	 1	 0.0	 0.0	 0.0	 0.0	 1	    1.05263	    0.00000	 380.0	 1	    1.10526	    1.00000;
	147	 1	 30.0	 5.5	 0.0	 0.0	 1	    1.00000	    0.00000	 63.0	 1	    1.06349	    0.93651;
	148	 1	 6.6	 1.2	 0.0	 0.0	 1	    1.00000	    0.00000	 63.0	 1	    1.06349	    0.93651;
	149	 1	 16.9	 4.1	 0.0	 0.0	 1	    1.02222	    0.00000	 90.0	 1	    1.06667	    0.97778;
	150	 1	 48.5	 3.2	 0.0	 0.0	 1	    1.00000	    0.00000	 63.0	 1	    1.06349	    0.93651;
	151	 1	 0.0	 0.0	 0.0	 0.0	 1	    1.01587	    0.00000	 63.0	 1	    1.06349	    0.96825;
	152	 1	 45.3	 12.0	 0.0	 7.7	 1	    1.01587	    0.00000	 63.0	 1	    1.06349	    0.96825;
	153	 1	 27.3	 -5.5	 0.0	 0.0	 1	    1.00000	    0.00000	 63.0	 1	    1.06349	    0.93651;
	154	 1	 0.0	 0.0	 0.0	 0.0	 1	    1.01111	    0.00000	 225.0	 1	    1.08889	    0.93333;
	155	 2	 0.0	 0.0	 0.0	 0.0	 1	    1.00000	    0.00000	 63.0	 1	    1.07937	    0.92063;
	156	 1	 0.0	 0.0	 0.0	 0.0	 1	    1.01587	    0.00000	 63.0	 1	    1.06349	    0.96825;
	157	 1	 0.0	 -2.2	 0.0	 0.0	 1	    0.94444	    0.00000	 45.0	 1	    1.00000	    0.88889;
	158	 2	 0.0	 0.0	 0.0	 0.0	 1	    0.94444	    0.00000	 45.0	 1	    1.00000	    0.88889;
	159	 1	 0.0	 0.0	 0.0	 0.0	 1	    1.00000	    0.00000	 63.0	 1	    1.06349	    0.93651;
	160	 1	 41.7	 5.9	 0.0	 0.0	 1	    0.98889	    0.00000	 225.0	 1	    1.08889	    0.88889;
	161	 1	 43.7	 10.0	 0.0	 0.0	 1	    0.98889	    0.00000	 225.0	 1	    1.08889	    0.88889;
	162	 1	 -0.3	 -1.6	 0.0	 0.0	 1	    1.02222	    0.00000	 90.0	 1	    1.06667	    0.97778;
	163	 1	 0.0	 0.0	 0.0	 0.0	 1	    1.01588	    0.00000	 63.0	 1	    1.07937	    0.95238;
	164	 1	 0.0	 0.0	 0.0	 0.0	 1	    1.01588	    0.00000	 63.0	 1	    1.07937	    0.95238;
	165	 1	 16.5	 14.6	 0.0	 0.0	 1	    0.97500	    0.00000	 20.0	 1	    1.15000	    0.80000;
	166	 1	 13.3	 3.2	 0.0	 0.0	 1	    1.02222	    0.00000	 90.0	 1	    1.06667	    0.97778;
	167	 1	 17.8	 -0.8	 0.0	 0.0	 1	    1.02222	    0.00000	 90.0	 1	    1.06667	    0.97778;
	168	 1	 0.0	 0.0	 0.0	 0.0	 1	    1.04444	    0.00000	 225.0	 1	    1.08444	    1.00444;
	169	 1	 9.9	 -0.9	 0.0	 0.0	 1	    1.02222	    0.00000	 90.0	 1	    1.06667	    0.97778;
	170	 1	 79.8	 13.5	 0.0	 0.0	 1	    1.02778	    0.00000	 90.0	 1	    1.07778	    0.97778;
	171	 1	 28.0	 0.8	 0.0	 30.0	 1	    1.02778	    0.00000	 90.0	 1	    1.07778	    0.97778;
	172	 1	 0.0	 0.0	 0.0	 0.0	 1	    1.04666	    0.00000	 225.0	 1	    1.08889	    1.00444;
	173	 1	 28.5	 8.0	 0.0	 0.0	 1	    1.01111	    0.00000	 90.0	 1	    1.08889	    0.93333;
	174	 1	 59.7	 11.6	 0.0	 0.0	 1	    1.03333	    0.00000	 90.0	 1	    1.11111	    0.95556;
	175	 1	 0.0	 0.0	 0.0	 0.0	 1	    1.00000	    0.00000	 63.0	 1	    1.07937	    0.92063;
	176	 2	 0.0	 0.0	 0.0	 0.0	 1	    1.00000	    0.00000	 150.0	 1	    1.10000	    0.90000;
	177	 1	 0.0	 0.0	 0.0	 0.0	 1	    1.04666	    0.00000	 225.0	 1	    1.08889	    1.00444;
	178	 1	 0.0	 0.0	 0.0	 0.0	 1	    1.04666	    0.00000	 225.0	 1	    1.08889	    1.00444;
	179	 1	 0.0	 0.0	 0.0	 0.0	 1	    1.00000	    0.00000	 63.0	 1	    1.04762	    0.95238;
	180	 1	 0.0	 0.0	 0.0	 0.0	 1	    1.04666	    0.00000	 225.0	 1	    1.08889	    1.00444;
	181	 1	 12.7	 -5.3	 0.0	 0.0	 1	    1.00000	    0.00000	 63.0	 1	    1.07937	    0.92063;
	182	 1	 16.0	 3.1	 0.0	 0.0	 1	    1.00000	    0.00000	 63.0	 1	    1.06349	    0.93651;
	183	 1	 5.5	 -1.7	 0.0	 0.0	 1	    1.01588	    0.00000	 63.0	 1	    1.07937	    0.95238;
	184	 1	 5.0	 1.4	 0.0	 0.0	 1	    1.02778	    0.00000	 90.0	 1	    1.07778	    0.97778;
	185	 1	 30.6	 2.7	 0.0	 0.0	 1	    1.01588	    0.00000	 63.0	 1	    1.07937	    0.95238;
	186	 1	 1.2	 0.2	 0.0	 0.0	 1	    1.02222	    0.00000	 90.0	 1	    1.06667	    0.97778;
	187	 2	 0.0	 0.0	 0.0	 0.0	 1	    1.00000	    0.00000	 63.0	 1	    1.07937	    0.92063;
	188	 1	 0.0	 0.0	 0.0	 0.0	 1	    1.00969	    0.00000	 63.0	 1	    1.09875	    0.92063;
	189	 1	 16.8	 1.8	 0.0	 0.0	 1	    1.00000	    0.00000	 63.0	 1	    1.07937	    0.92063;
	190	 2	 0.0	 0.0	 0.0	 0.0	 1	    0.94444	    0.00000	 45.0	 1	    1.00000	    0.88889;
	191	 1	 15.4	 -1.1	 0.0	 0.0	 1	    1.02222	    0.00000	 90.0	 1	    1.06667	    0.97778;
	192	 1	 9.9	 -0.0	 0.0	 0.0	 1	    1.00000	    0.00000	 63.0	 1	    1.07937	    0.92063;
	193	 1	 0.1	 0.7	 0.0	 0.0	 1	    1.04666	    0.00000	 225.0	 1	    1.08889	    1.00444;
	194	 2	 0.7	 -1.6	 0.0	 0.0	 1	    1.00000	    0.00000	 63.0	 1	    1.07937	    0.92063;
	195	 1	 0.0	 0.0	 0.0	 0.0	 1	    1.00800	    0.00000	 63.0	 1	    1.06362	    0.95238;
	196	 1	 0.0	 0.0	 0.0	 0.0	 1	    1.00800	    0.00000	 63.0	 1	    1.06362	    0.95238;
	197	 1	 27.5	 -0.6	 0.0	 15.0	 1	    1.00000	    0.00000	 63.0	 1	    1.07937	    0.92063;
	198	 1	 11.1	 -0.8	 0.0	 0.0	 1	    1.00000	    0.00000	 63.0	 1	    1.07937	    0.92063;
	199	 1	 12.6	 2.7	 0.0	 0.0	 1	    1.02222	    0.00000	 90.0	 1	    1.06667	    0.97778;
	200	 1	 0.0	 0.0	 0.0	 0.0	 1	    1.04445	    0.00000	 225.0	 1	    1.08889	    1.00000;
...
];

%% generator data
%	bus	Pg	Qg	Qmax	Qmin	Vg	mBase	status	Pmax	Pmin
mpc.gen = [
	4	 0.0	 0.0	 0.0	 0.0	 1.0111115	 100.0	 0	 12.0	 0.0	0.8204	0.8230; % COW
	4	 0.0	 0.0	 0.0	 0.0	 1.0111115	 100.0	 0	 10.0	 0.0	0.5173	0.5177; % NG
	5	 0.0	 0.0	 0.0	 0.0	 1.0079355	 100.0	 0	 9.1	 0.0	0.5173	0.5177; % NG
	11	 14.0	 0.0	 0.0	 0.0	 1.000001	 100.0	 1	 28.0	 0.0	0.5173	0.5177; % NG
	11	 0.0	 0.0	 0.0	 0.0	 1.000001	 100.0	 0	 18.0	 0.0	0.7001	0.7018; % PEL
	17	 0.0	 0.0	 0.0	 0.0	 1.022224	 100.0	 0	 8.2	 0.0	0.5173	0.5177; % NG
	19	 0.0	 0.0	 0.0	 0.0	 0.999999	 100.0	 0	 1.2	 0.0	0.7001	0.7018; % PEL
	22	 0.0	 0.0	 0.0	 0.0	 1.0158755	 100.0	 0	 10.0	 0.0	0.5173	0.5177; % NG
	24	 0.0	 0.0	 0.0	 0.0	 1.033333	 100.0	 0	 16.1	 0.0	0.5173	0.5177; % NG
	24	 0.0	 0.0	 0.0	 0.0	 1.033333	 100.0	 0	 35.5	 0.0	0.5173	0.5177; % NG
	25	 18.0	 0.0	 0.0	 0.0	 1.022222	 100.0	 1	 36.0	 0.0	0.7001	0.7018; % PEL
	25	 0.0	 0.0	 0.0	 0.0	 1.022222	 100.0	 0	 27.2	 0.0	0.5173	0.5177; % NG
	40	 0.0	 0.0	 0.0	 0.0	 1.027779	 100.0	 0	 8.0	 0.0	0.5173	0.5177; % NG
	47	 8.0	 -0.25	 9.5	 -10.0	 0.999999	 100.0	 1	 16.0	 0.0	0.8204	0.8230; % COW
	47	 8.0	 -0.25	 9.5	 -10.0	 0.999999	 100.0	 1	 16.0	 0.0	0.7001	0.7018; % PEL
	48	 0.0	 0.0	 0.0	 0.0	 1.000001	 100.0	 0	 23.0	 0.0	0.7001	0.7018; % PEL
	48	 0.0	 0.0	 0.0	 0.0	 1.000001	 100.0	 0	 24.0	 0.0	0.8204	0.8230; % COW
	57	 6.5	 0.95	 1.0	 0.9	 1.0000025	 100.0	 1	 13.0	 0.0	0.8204	0.8230; % COW
	64	 0.0	 0.0	 0.0	 0.0	 0.9888895	 100.0	 0	 24.0	 0.0	0.5173	0.5177; % NG
	64	 0.0	 0.0	 0.0	 0.0	 0.9888895	 100.0	 0	 27.6	 0.0	0.5173	0.5177; % NG
	69	 0.0	 0.0	 0.0	 0.0	 1.0079355	 100.0	 0	 30.04	 0.0	0.5173	0.5177; % NG
	70	 0.0	 0.0	 0.0	 0.0	 1.0158755	 100.0	 0	 23.0	 0.0	0.8204	0.8230; % COW
	85	 0.0	 0.0	 0.0	 0.0	 0.999999	 100.0	 0	 6.68	 0.0	0.5173	0.5177; % NG
	86	 0.0	 0.0	 0.0	 0.0	 1.022224	 100.0	 0	 9.2	 0.0	0.5173	0.5177; % NG
	102	 23.0	 6.0	 21.0	 -9.0	 1.0158755	 100.0	 1	 46.0	 0.0	0.5173	0.5177; % NG
	122	 6.0	 1.5	 5.0	 -2.0	 1.0158755	 100.0	 1	 12.0	 0.0	0.5173	0.5177; % NG
	124	 0.0	 0.0	 0.0	 0.0	 1.022224	 100.0	 0	 9.0	 0.0	0.5173	0.5177; % NG
	125	 13.0	 0.0	 0.0	 0.0	 1.0158755	 100.0	 1	 26.0	 0.0	0.5173	0.5177; % NG
	125	 6.0	 0.0	 0.0	 0.0	 1.0158755	 100.0	 1	 12.0	 0.0	0.5173	0.5177; % NG
	132	 8.5	 0.0	 3.0	 -3.0	 1.000001	 100.0	 1	 17.0	 0.0	0.7001	0.7018; % PEL
	132	 0.0	 0.8	 1.0	 -1.0	 1.000001	 100.0	 0	 4.0	 0.0	0.5173	0.5177; % NG
	132	 0.0	 0.8	 3.0	 -3.0	 1.000001	 100.0	 0	 14.0	 0.0	0.5173	0.5177; % NG
	132	 0.0	 0.8	 3.0	 -3.0	 1.000001	 100.0	 0	 14.0	 0.0	0.8204	0.8230; % COW
	137	 0.0	 -0.2	 0.8	 -0.8	 1.015872	 100.0	 0	 18.0	 0.0	0.7001	0.7018; % PEL
	137	 9.0	 0.0	 0.8	 -0.8	 1.015872	 100.0	 1	 18.0	 0.0	0.5173	0.5177; % NG
	155	 0.0	 0.47	 1.76	 -1.76	 1.0000025	 100.0	 0	 5.3	 0.0	0.5173	0.5177; % NG
	158	 8.95	 -1.5	 10.0	 -13.0	 0.9444445	 100.0	 1	 17.9	 0.0	0.5173	0.5177; % NG
	158	 8.95	 -1.5	 10.0	 -13.0	 0.9444445	 100.0	 1	 17.9	 0.0	0.7001	0.7018; % PEL
	176	 0.0	 0.78	 10.0	 -4.0	 1.0	 100.0	 0	 30.0	 0.0	0.7001	0.7018; % PEL
	187	 0.0	 1.92	 8.0	 -8.0	 1.0000025	 100.0	 0	 11.0	 0.0	0.5173	0.5177; % NG
	187	 0.0	 1.91	 2.0	 -2.0	 1.0000025	 100.0	 0	 11.0	 0.0	0.5173	0.5177; % NG
	190	 0.0	 -0.37	 14.0	 -14.0	 0.9444445	 100.0	 0	 30.0	 0.0	0.5173	0.5177; % NG
	192	 11.75	 0.0	 0.0	 0.0	 1.0000025	 100.0	 1	 23.5	 0.0	0.7001	0.7018; % PEL
	194	 7.5	 0.95	 1.0	 0.9	 1.0000025	 100.0	 1	 15.0	 0.0	0.5173	0.5177; % NG
	194	 7.5	 0.95	 1.0	 0.9	 1.0000025	 100.0	 1	 15.0	 0.0	0.5173	0.5177; % NG
	217	 0.0	 0.0	 0.0	 0.0	 1.022224	 100.0	 0	 11.94	 0.0	0.5173	0.5177; % NG
	224	 0.0	 0.79	 2.0	 0.0	 1.0	 100.0	 0	 6.0	 0.0	0.5173	0.5177; % NG
	227	 0.0	 0.0	 0.0	 0.0	 1.0079355	 100.0	 0	 7.5	 0.0	0.8204	0.8230; % COW
	236	 0.0	 0.0	 0.0	 0.0	 1.000001	 100.0	 0	 33.5	 0.0	0.5173	0.5177; % NG
	236	 0.0	 0.0	 0.0	 0.0	 1.000001	 100.0	 0	 24.3	 0.0	0.5173	0.5177; % NG
	238	 0.0	 0.0	 0.0	 0.0	 1.022224	 100.0	 0	 8.0	 0.0	0.7001	0.7018; % PEL
	238	 18.0	 0.0	 0.0	 0.0	 1.022224	 100.0	 1	 36.0	 0.0	0.8204	0.8230; % COW
	246	 0.0	 0.0	 2.0	 0.0	 0.999999	 100.0	 0	 1.0	 0.0	0.7001	0.7018; % PEL
	246	 0.0	 -0.31	 10.0	 -10.0	 0.999999	 100.0	 0	 31.0	 0.0	0.7001	0.7018; % PEL
	246	 0.0	 -0.31	 10.0	 -10.0	 0.999999	 100.0	 0	 31.0	 0.0	0.5173	0.5177; % NG
	246	 0.0	 -0.31	 10.0	 -10.0	 0.999999	 100.0	 0	 31.0	 0.0	0.8204	0.8230; % COW
	256	 13.0	 0.0	 10.0	 -10.0	 1.0000025	 100.0	 1	 26.0	 0.0	0.5173	0.5177; % NG
	256	 13.0	 0.0	 10.0	 -10.0	 1.0000025	 100.0	 1	 26.0	 0.0	0.7001	0.7018; % PEL
	258	 15.0	 0.95	 1.0	 0.9	 1.000001	 100.0	 1	 30.0	 0.0	0.5173	0.5177; % NG
	261	 0.0	 1.78	 4.0	 -4.0	 1.0000025	 100.0	 0	 8.0	 0.0	0.8204	0.8230; % COW
	269	 0.0	 0.0	 0.0	 0.0	 1.0000025	 100.0	 0	 12.6	 0.0	0.5173	0.5177; % NG
	282	 0.0	 -0.32	 6.1	 -6.2	 0.999999	 100.0	 0	 11.6	 0.0	0.5173	0.5177; % NG
	295	 0.0	 0.0	 0.0	 0.0	 0.9888895	 100.0	 0	 25.3	 0.0	0.5173	0.5177; % NG
	296	 6.0	 0.0	 0.0	 0.0	 1.0158755	 100.0	 1	 12.0	 0.0	0.5173	0.5177; % NG
	305	 0.0	 -6.56	 9.0	 -9.0	 0.999999	 100.0	 0	 15.0	 0.0	0.5173	0.5177; % NG
	312	 12.9	 0.0	 0.0	 0.0	 1.000001	 100.0	 1	 25.8	 0.0	0.7001	0.7018; % PEL
	312	 24.8	 0.0	 0.0	 0.0	 1.000001	 100.0	 1	 49.6	 0.0	0.5173	0.5177; % NG
	317	 0.0	 0.0	 0.0	 0.0	 1.0000025	 100.0	 0	 0.0	 -7.0	0.0000	0.0000; % SYNC
	317	 0.0	 0.0	 0.0	 0.0	 1.0000025	 100.0	 0	 0.0	 -7.0	0.0000	0.0000; % SYNC
	319	 0.0	 0.1	 0.1	 -0.1	 1.0000025	 100.0	 0	 10.8	 0.0	0.7001	0.7018; % PEL
	325	 0.0	 -0.29	 4.0	 -4.0	 0.999999	 100.0	 0	 11.0	 0.0	0.5173	0.5177; % NG
	332	 0.0	 1.22	 13.0	 -9.0	 1.015872	 100.0	 0	 25.0	 0.0	0.7001	0.7018; % PEL
	333	 0.0	 4.72	 13.0	 -9.0	 1.0233335	 100.0	 0	 25.0	 0.0	0.5173	0.5177; % NG
	336	 6.5	 -0.5	 5.0	 -6.0	 1.0000025	 100.0	 1	 13.0	 0.0	0.5173	0.5177; % NG
	338	 0.0	 1.74	 10.0	 -10.0	 1.0000025	 100.0	 0	 21.0	 0.0	0.7001	0.7018; % PEL
	338	 0.0	 0.1	 0.1	 -0.1	 1.0000025	 100.0	 0	 2.0	 0.0	0.7001	0.7018; % PEL
	345	 0.0	 0.0	 0.0	 0.0	 1.027779	 100.0	 0	 2.3	 0.0	0.7001	0.7018; % PEL
	345	 0.0	 0.0	 0.0	 0.0	 1.027779	 100.0	 0	 19.5	 0.0	0.7001	0.7018; % PEL
	348	 0.0	 0.0	 0.0	 0.0	 1.022222	 100.0	 0	 22.0	 0.0	0.7001	0.7018; % PEL
	357	 0.0	 0.0	 0.0	 0.0	 1.0158755	 100.0	 0	 12.0	 0.0	0.8204	0.8230; % COW
	357	 0.0	 0.0	 0.0	 0.0	 1.0158755	 100.0	 0	 12.0	 0.0	0.5173	0.5177; % NG
	364	 65.0	 16.5	 59.0	 -26.0	 1.046665	 100.0	 1	 130.0	 0.0	0.5173	0.5177; % NG
	391	 0.0	 0.0	 0.0	 0.0	 1.0000025	 100.0	 0	 2.7	 0.0	0.7001	0.7018; % PEL
	409	 0.0	 1.09	 5.0	 -5.0	 1.015872	 100.0	 0	 18.0	 0.0	0.5173	0.5177; % NG
	411	 0.0	 0.0	 0.0	 0.0	 1.022224	 100.0	 0	 10.0	 0.0	0.5173	0.5177; % NG
	411	 0.0	 0.0	 0.0	 0.0	 1.022224	 100.0	 0	 11.5	 0.0	0.5173	0.5177; % NG
	431	 0.0	 0.0	 0.0	 0.0	 1.0000025	 100.0	 0	 12.0	 0.0	0.5173	0.5177; % NG
	440	 0.0	 1.25	 10.96	 -11.99	 1.0000025	 100.0	 0	 34.25	 0.0	0.5173	0.5177; % NG
	447	 12.5	 -0.5	 8.0	 -9.0	 1.015872	 100.0	 1	 25.0	 0.0	0.5173	0.5177; % NG
	462	 0.0	 0.0	 0.0	 0.0	 1.0079355	 100.0	 0	 2.4	 0.0	0.7001	0.7018; % PEL
	462	 0.0	 0.0	 0.0	 0.0	 1.0079355	 100.0	 0	 16.0	 0.0	0.5173	0.5177; % NG
	464	 14.0	 1.5	 6.0	 -3.0	 0.98822	 100.0	 1	 27.0	 1.0	0.5173	0.5177; % NG
	464	 14.0	 1.5	 6.0	 -3.0	 0.98822	 100.0	 1	 27.0	 1.0	0.5173	0.5177; % NG
	466	 0.0	 0.0	 19.0	 -10.0	 1.0079355	 100.0	 0	 48.0	 1.0	0.5173	0.5177; % NG
	470	 0.0	 -0.68	 6.0	 -6.0	 0.999999	 100.0	 0	 10.0	 0.0	0.5173	0.5177; % NG
	470	 0.0	 -2.11	 5.4	 -5.4	 0.999999	 100.0	 0	 9.0	 0.0	0.5173	0.5177; % NG
	479	 0.0	 -0.24	 17.0	 -16.0	 0.999999	 100.0	 0	 27.0	 0.0	0.5173	0.5177; % NG
	479	 0.0	 -0.24	 17.0	 -16.0	 0.999999	 100.0	 0	 27.0	 0.0	0.5173	0.5177; % NG
	479	 0.0	 -0.24	 17.0	 -16.0	 0.999999	 100.0	 0	 27.0	 0.0	0.7001	0.7018; % PEL
	491	 0.0	 -2.0	 8.0	 -17.0	 1.033334	 100.0	 0	 23.4	 0.0	0.7001	0.7018; % PEL
	508	 0.0	 1.77	 2.0	 -2.0	 0.999999	 100.0	 0	 4.0	 0.0	0.5173	0.5177; % NG
	519	 0.0	 0.0	 0.0	 0.0	 1.015874	 100.0	 0	 10.0	 0.0	0.7001	0.7018; % PEL
	520	 0.0	 0.0	 0.0	 0.0	 1.022224	 100.0	 0	 12.0	 0.0	0.5173	0.5177; % NG
	530	 4.0	 0.0	 4.8	 -4.8	 0.999999	 100.0	 1	 8.0	 0.0	0.8204	0.8230; % COW
	530	 4.0	 0.0	 4.8	 -4.8	 0.999999	 100.0	 1	 8.0	 0.0	0.8204	0.8230; % COW
	530	 4.0	 0.0	 4.8	 -4.8	 0.999999	 100.0	 1	 8.0	 0.0	0.8204	0.8230; % COW
	537	 0.0	 0.0	 0.0	 0.0	 1.022224	 100.0	 0	 12.0	 0.0	0.5173	0.5177; % NG
	537	 12.0	 0.0	 0.0	 0.0	 1.022224	 100.0	 1	 24.0	 0.0	0.7001	0.7018; % PEL
	546	 4.5	 1.95	 2.0	 1.9	 1.0000025	 100.0	 1	 9.0	 0.0	0.5173	0.5177; % NG
	548	 0.0	 1.04	 2.0	 0.0	 1.0000025	 100.0	 0	 12.0	 0.0	0.5173	0.5177; % NG
	570	 0.0	 0.0	 0.0	 0.0	 1.0158755	 100.0	 0	 12.0	 0.0	0.8204	0.8230; % COW
	570	 0.0	 0.0	 0.0	 0.0	 1.0158755	 100.0	 0	 30.0	 0.0	0.7001	0.7018; % PEL
	570	 0.0	 0.0	 0.0	 0.0	 1.0158755	 100.0	 0	 11.5	 0.0	0.5173	0.5177; % NG
	583	 8.0	 1.5	 7.0	 -4.0	 1.0000005	 100.0	 1	 16.0	 0.0	0.7001	0.7018; % PEL
	585	 0.0	 0.0	 0.0	 0.0	 1.0158755	 100.0	 0	 9.0	 0.0	0.5173	0.5177; % NG
	586	 0.0	 4.82	 5.7	 -5.7	 0.999999	 100.0	 0	 9.5	 0.0	0.5173	0.5177; % NG
	589	 0.0	 0.1	 0.1	 -0.1	 1.000001	 100.0	 0	 1.0	 0.0	0.7001	0.7018; % PEL
	593	 0.0	 1.09	 10.0	 -10.0	 1.0000025	 100.0	 0	 21.0	 0.0	0.7001	0.7018; % PEL
	600	 0.0	 0.79	 1.0	 -1.0	 1.015872	 100.0	 0	 6.1	 0.0	0.7001	0.7018; % PEL
	610	 22.5	 0.0	 45.0	 -45.0	 0.975	 100.0	 1	 45.0	 0.0	0.5173	0.5177; % NG
	610	 0.0	 -0.45	 45.0	 -45.0	 0.975	 100.0	 0	 45.0	 0.0	0.5173	0.5177; % NG
	612	 0.0	 0.0	 0.0	 0.0	 1.022224	 100.0	 0	 12.0	 0.0	0.5173	0.5177; % NG
	612	 0.0	 0.0	 0.0	 0.0	 1.022224	 100.0	 0	 12.0	 0.0	0.5173	0.5177; % NG
	612	 0.0	 0.0	 0.0	 0.0	 1.022224	 100.0	 0	 12.0	 0.0	0.5173	0.5177; % NG
	613	 0.0	 0.0	 0.0	 0.0	 1.0000005	 100.0	 0	 35.0	 0.0	0.5173	0.5177; % NG
	613	 0.0	 0.0	 0.0	 0.0	 1.0000005	 100.0	 0	 11.5	 0.0	0.7001	0.7018; % PEL
	624	 0.0	 0.0	 8.3	 -8.3	 1.0111115	 100.0	 1	 8.3	 -8.3	0.7001	0.7018; % PEL
	633	 0.0	 -2.55	 4.0	 -4.0	 0.999999	 100.0	 0	 7.3	 0.0	0.8204	0.8230; % COW
	636	 0.0	 0.25	 7.0	 0.0	 1.015872	 100.0	 0	 15.0	 0.0	0.5173	0.5177; % NG
	636	 7.5	 3.5	 7.0	 0.0	 1.015872	 100.0	 1	 15.0	 0.0	0.5173	0.5177; % NG
	646	 119.5	 2.5	 80.0	 -75.0	 1.078945	 100.0	 1	 239.0	 0.0	0.5173	0.5177; % NG
	657	 0.0	 0.51	 7.0	 0.0	 1.0000025	 100.0	 0	 7.0	 0.0	0.5173	0.5177; % NG
	675	 0.0	 0.0	 0.0	 0.0	 1.022224	 100.0	 0	 12.0	 0.0	0.5173	0.5177; % NG
	675	 6.0	 0.0	 0.0	 0.0	 1.022224	 100.0	 1	 12.0	 0.0	0.7001	0.7018; % PEL
	676	 0.0	 0.0	 0.0	 0.0	 1.027779	 100.0	 0	 7.5	 0.0	0.5173	0.5177; % NG
	676	 0.0	 0.0	 0.0	 0.0	 1.027779	 100.0	 0	 24.0	 0.0	0.7001	0.7018; % PEL
	684	 0.0	 0.0	 0.0	 0.0	 1.0218635	 100.0	 0	 6.6	 0.0	0.5173	0.5177; % NG
	685	 0.0	 0.0	 0.0	 0.0	 1.022224	 100.0	 0	 12.0	 0.0	0.5173	0.5177; % NG
	689	 4.5	 0.5	 6.0	 -5.0	 0.9444445	 100.0	 1	 9.0	 0.0	0.8204	0.8230; % COW
	689	 4.5	 0.5	 6.0	 -5.0	 0.9444445	 100.0	 1	 9.0	 0.0	0.7001	0.7018; % PEL
	689	 0.0	 1.22	 8.0	 -5.0	 0.9444445	 100.0	 0	 11.0	 0.0	0.5173	0.5177; % NG
	689	 5.5	 1.5	 8.0	 -5.0	 0.9444445	 100.0	 1	 11.0	 0.0	0.7001	0.7018; % PEL
	700	 0.0	 0.0	 0.0	 0.0	 1.022222	 100.0	 0	 32.35	 0.0	0.5173	0.5177; % NG
	700	 0.0	 0.0	 0.0	 0.0	 1.022222	 100.0	 0	 12.0	 0.0	0.5173	0.5177; % NG
	700	 0.0	 0.0	 0.0	 0.0	 1.022222	 100.0	 0	 21.0	 0.0	0.5173	0.5177; % NG
	704	 18.5	 -1.0	 15.0	 -17.0	 0.975	 100.0	 1	 37.0	 0.0	0.5173	0.5177; % NG
	704	 18.5	 -1.0	 15.0	 -17.0	 0.975	 100.0	 1	 37.0	 0.0	0.5173	0.5177; % NG
	703	 18.5	 0.0	 15.0	 -15.0	 0.975	 100.0	 1	 37.0	 0.0	0.5173	0.5177; % NG
	703	 18.5	 0.0	 15.0	 -15.0	 0.975	 100.0	 1	 37.0	 0.0	0.8204	0.8230; % COW
	702	 18.5	 -1.0	 15.0	 -17.0	 0.975	 100.0	 1	 37.0	 0.0	0.5173	0.5177; % NG
	702	 18.5	 -1.0	 15.0	 -17.0	 0.975	 100.0	 1	 37.0	 0.0	0.5173	0.5177; % NG
	710	 0.0	 2.0	 2.0	 -2.0	 0.9444445	 100.0	 0	 4.0	 0.0	0.7001	0.7018; % PEL
	710	 0.0	 2.16	 2.5	 -2.5	 0.9444445	 100.0	 0	 4.0	 0.0	0.5173	0.5177; % NG
	710	 2.85	 0.0	 3.0	 -3.0	 0.9444445	 100.0	 1	 5.7	 0.0	0.5173	0.5177; % NG
	710	 0.0	 0.5	 6.0	 -5.0	 0.9444445	 100.0	 0	 8.5	 0.0	0.5173	0.5177; % NG
	737	 0.0	 0.0	 0.0	 0.0	 1.022224	 100.0	 0	 19.5	 0.0	0.7001	0.7018; % PEL
	738	 19.5	 0.0	 18.0	 -18.0	 0.999999	 100.0	 1	 39.0	 0.0	0.7001	0.7018; % PEL
	739	 5.75	 0.0	 0.0	 0.0	 1.0158755	 100.0	 1	 11.5	 0.0	0.7001	0.7018; % PEL
	739	 16.0	 0.0	 0.0	 0.0	 1.0158755	 100.0	 1	 32.0	 0.0	0.5173	0.5177; % NG
	741	 0.0	 0.0	 0.0	 0.0	 1.000001	 100.0	 0	 12.0	 0.0	0.5173	0.5177; % NG
	741	 0.0	 0.0	 0.0	 0.0	 1.000001	 100.0	 0	 32.0	 0.0	0.5173	0.5177; % NG
	742	 0.0	 0.1	 0.1	 -0.1	 1.0000025	 100.0	 0	 5.0	 0.0	0.5173	0.5177; % NG
	749	 0.0	 3.42	 3.97	 -3.7	 0.999999	 100.0	 0	 6.7	 0.0	0.7001	0.7018; % PEL
	749	 0.0	 2.98	 3.54	 -3.0	 0.999999	 100.0	 0	 5.6	 0.0	0.5173	0.5177; % NG
	750	 13.3	 0.0	 15.0	 -15.0	 0.999999	 100.0	 1	 26.6	 0.0	0.5173	0.5177; % NG
	751	 4.0	 0.0	 2.0	 -2.0	 1.022224	 100.0	 1	 7.0	 1.0	0.5173	0.5177; % NG
	756	 0.0	 -0.31	 3.0	 -3.0	 0.999999	 100.0	 0	 5.0	 -5.0	0.5173	0.5177; % NG
	763	 0.0	 0.84	 8.0	 -8.0	 0.9888895	 100.0	 0	 23.5	 0.0	0.7001	0.7018; % PEL
	765	 0.0	 0.0	 0.0	 0.0	 0.999999	 100.0	 0	 6.0	 0.0	0.7001	0.7018; % PEL
	766	 0.0	 0.0	 0.0	 0.0	 0.999999	 100.0	 0	 6.0	 0.0	0.5173	0.5177; % NG
	765	 18.75	 1.79	 10.0	 -6.42	 0.999999	 100.0	 1	 37.5	 0.0	0.7001	0.7018; % PEL
	766	 18.75	 2.0	 10.0	 -6.0	 0.999999	 100.0	 1	 37.5	 0.0	0.8204	0.8230; % COW
	767	 0.0	 0.06	 0.06	 -0.06	 0.825	 100.0	 0	 0.6	 0.0	0.7001	0.7018; % PEL
	767	 0.0	 1.89	 2.61	 -2.61	 0.825	 100.0	 0	 26.1	 0.0	0.5173	0.5177; % NG
	767	 0.0	 0.16	 0.16	 -0.16	 0.825	 100.0	 0	 1.6	 0.0	0.7001	0.7018; % PEL
	767	 0.0	 0.11	 0.11	 -0.11	 0.825	 100.0	 0	 1.1	 0.0	0.7001	0.7018; % PEL
	771	 0.0	 0.0	 0.0	 0.0	 1.0158755	 100.0	 0	 37.5	 0.0	0.8204	0.8230; % COW
	771	 17.0	 0.0	 0.0	 0.0	 1.0158755	 100.0	 1	 34.0	 0.0	0.5173	0.5177; % NG
	791	 0.0	 -0.47	 26.0	 -26.0	 0.975	 100.0	 0	 8.0	 0.0	0.7001	0.7018; % PEL
	791	 0.0	 -0.47	 26.0	 -26.0	 0.975	 100.0	 0	 15.0	 0.0	0.8204	0.8230; % COW
	792	 0.0	 -0.47	 26.0	 -26.0	 0.975	 100.0	 0	 19.0	 0.0	0.5173	0.5177; % NG
	806	 15.5	 -1.0	 15.0	 -17.0	 0.975	 100.0	 1	 31.0	 0.0	0.7001	0.7018; % PEL
	806	 15.5	 -1.0	 15.0	 -17.0	 0.975	 100.0	 1	 31.0	 0.0	0.5173	0.5177; % NG
	807	 15.5	 -1.0	 15.0	 -17.0	 0.975	 100.0	 1	 31.0	 0.0	0.5173	0.5177; % NG
	807	 15.5	 -1.0	 15.0	 -17.0	 0.975	 100.0	 1	 31.0	 0.0	0.5173	0.5177; % NG
	808	 15.5	 -1.0	 15.0	 -17.0	 0.975	 100.0	 1	 31.0	 0.0	0.5173	0.5177; % NG
	808	 15.5	 -1.0	 15.0	 -17.0	 0.975	 100.0	 1	 31.0	 0.0	0.7001	0.7018; % PEL
	812	 20.4	 0.0	 0.0	 0.0	 1.0000025	 100.0	 1	 40.8	 0.0	0.8204	0.8230; % COW
	820	 16.5	 -1.5	 6.0	 -9.0	 1.015872	 100.0	 1	 32.0	 1.0	0.5173	0.5177; % NG
	820	 0.0	 0.0	 6.0	 -9.0	 1.015872	 100.0	 0	 32.0	 1.0	0.7001	0.7018; % PEL
	821	 16.5	 -1.5	 6.0	 -9.0	 1.015872	 100.0	 1	 32.0	 1.0	0.5173	0.5177; % NG
	821	 16.5	 -1.5	 6.0	 -9.0	 1.015872	 100.0	 1	 32.0	 1.0	0.7001	0.7018; % PEL
	821	 16.5	 -1.5	 6.0	 -9.0	 1.015872	 100.0	 1	 32.0	 1.0	0.5173	0.5177; % NG
	821	 16.5	 -1.5	 6.0	 -9.0	 1.015872	 100.0	 1	 32.0	 1.0	0.5173	0.5177; % NG
	831	 0.0	 1.01	 3.0	 -3.0	 1.0000025	 100.0	 0	 13.0	 0.0	0.5173	0.5177; % NG
	831	 0.0	 3.0	 3.0	 -3.0	 1.0000025	 100.0	 0	 7.0	 0.0	0.5173	0.5177; % NG
	834	 0.0	 0.0	 0.0	 0.0	 1.022222	 100.0	 0	 2.4	 0.0	0.7001	0.7018; % PEL
	835	 13.5	 0.0	 10.0	 -10.0	 1.0000025	 100.0	 1	 27.0	 0.0	0.8204	0.8230; % COW
	836	 0.0	 -0.46	 10.0	 -10.0	 0.9444445	 100.0	 0	 20.0	 0.0	0.7001	0.7018; % PEL
	838	 0.0	 1.03	 3.14	 -3.43	 1.0000025	 100.0	 0	 9.8	 0.0	0.7001	0.7018; % PEL
...
];

%% generator cost data
%	2	startup	shutdown	n	c(n-1)	...	c0
mpc.gencost = [
	2	 0.0	 0.0	 3	   0.000000	  13.409395	   0.000000; % COW
	2	 0.0	 0.0	 3	   0.000000	  31.107344	   0.000000; % NG
	2	 0.0	 0.0	 3	   0.000000	  47.925525	   0.000000; % NG
	2	 0.0	 0.0	 3	   0.000000	  20.484465	   0.000000; % NG
	2	 0.0	 0.0	 3	   0.000000	 108.925421	   0.000000; % PEL
	2	 0.0	 0.0	 3	   0.000000	  28.288203	   0.000000; % NG
	2	 0.0	 0.0	 3	   0.000000	 113.056805	   0.000000; % PEL
	2	 0.0	 0.0	 3	   0.000000	  37.340978	   0.000000; % NG
	2	 0.0	 0.0	 3	   0.000000	  35.662206	   0.000000; % NG
	2	 0.0	 0.0	 3	   0.000000	  32.703933	   0.000000; % NG
	2	 0.0	 0.0	 3	   0.000000	 114.557087	   0.000000; % PEL
	2	 0.0	 0.0	 3	   0.000000	  50.026509	   0.000000; % NG
	2	 0.0	 0.0	 3	   0.000000	  34.735298	   0.000000; % NG
	2	 0.0	 0.0	 3	   0.000000	  22.571794	   0.000000; % COW
	2	 0.0	 0.0	 3	   0.000000	  95.370382	   0.000000; % PEL
	2	 0.0	 0.0	 3	   0.000000	 104.662993	   0.000000; % PEL
	2	 0.0	 0.0	 3	   0.000000	  29.880796	   0.000000; % COW
	2	 0.0	 0.0	 3	   0.000000	  18.733966	   0.000000; % COW
	2	 0.0	 0.0	 3	   0.000000	  26.732519	   0.000000; % NG
	2	 0.0	 0.0	 3	   0.000000	  49.970101	   0.000000; % NG
	2	 0.0	 0.0	 3	   0.000000	  42.646350	   0.000000; % NG
	2	 0.0	 0.0	 3	   0.000000	  24.566193	   0.000000; % COW
	2	 0.0	 0.0	 3	   0.000000	  32.544217	   0.000000; % NG
	2	 0.0	 0.0	 3	   0.000000	  21.679418	   0.000000; % NG
	2	 0.0	 0.0	 3	   0.000000	  43.393878	   0.000000; % NG
	2	 0.0	 0.0	 3	   0.000000	  42.830882	   0.000000; % NG
	2	 0.0	 0.0	 3	   0.000000	  42.424725	   0.000000; % NG
	2	 0.0	 0.0	 3	   0.000000	  28.272820	   0.000000; % NG
	2	 0.0	 0.0	 3	   0.000000	  42.460903	   0.000000; % NG
	2	 0.0	 0.0	 3	   0.000000	 129.749890	   0.000000; % PEL
	2	 0.0	 0.0	 3	   0.000000	  38.262547	   0.000000; % NG
	2	 0.0	 0.0	 3	   0.000000	  34.213206	   0.000000; % NG
	2	 0.0	 0.0	 3	   0.000000	  22.985309	   0.000000; % COW
	2	 0.0	 0.0	 3	   0.000000	 129.405681	   0.000000; % PEL
	2	 0.0	 0.0	 3	   0.000000	  36.334698	   0.000000; % NG
	2	 0.0	 0.0	 3	   0.000000	  25.436639	   0.000000; % NG
	2	 0.0	 0.0	 3	   0.000000	  35.318814	   0.000000; % NG
	2	 0.0	 0.0	 3	   0.000000	  94.856054	   0.000000; % PEL
	2	 0.0	 0.0	 3	   0.000000	 112.508935	   0.000000; % PEL
	2	 0.0	 0.0	 3	   0.000000	  41.816967	   0.000000; % NG
	2	 0.0	 0.0	 3	   0.000000	  39.577782	   0.000000; % NG
	2	 0.0	 0.0	 3	   0.000000	  35.074195	   0.000000; % NG
	2	 0.0	 0.0	 3	   0.000000	 121.067002	   0.000000; % PEL
	2	 0.0	 0.0	 3	   0.000000	  29.040562	   0.000000; % NG
	2	 0.0	 0.0	 3	   0.000000	  28.319622	   0.000000; % NG
	2	 0.0	 0.0	 3	   0.000000	  53.375829	   0.000000; % NG
	2	 0.0	 0.0	 3	   0.000000	  43.804258	   0.000000; % NG
	2	 0.0	 0.0	 3	   0.000000	  18.429469	   0.000000; % COW
	2	 0.0	 0.0	 3	   0.000000	  40.720694	   0.000000; % NG
	2	 0.0	 0.0	 3	   0.000000	  62.366023	   0.000000; % NG
	2	 0.0	 0.0	 3	   0.000000	 105.750649	   0.000000; % PEL
	2	 0.0	 0.0	 3	   0.000000	  25.509795	   0.000000; % COW
	2	 0.0	 0.0	 3	   0.000000	 119.781153	   0.000000; % PEL
	2	 0.0	 0.0	 3	   0.000000	 105.846763	   0.000000; % PEL
	2	 0.0	 0.0	 3	   0.000000	  34.198164	   0.000000; % NG
	2	 0.0	 0.0	 3	   0.000000	  29.720127	   0.000000; % COW
	2	 0.0	 0.0	 3	   0.000000	  32.320585	   0.000000; % NG
	2	 0.0	 0.0	 3	   0.000000	 105.326679	   0.000000; % PEL
	2	 0.0	 0.0	 3	   0.000000	  47.168862	   0.000000; % NG
	2	 0.0	 0.0	 3	   0.000000	  11.147421	   0.000000; % COW
	2	 0.0	 0.0	 3	   0.000000	  40.203379	   0.000000; % NG
	2	 0.0	 0.0	 3	   0.000000	  26.475949	   0.000000; % NG
	2	 0.0	 0.0	 3	   0.000000	  44.895622	   0.000000; % NG
	2	 0.0	 0.0	 3	   0.000000	  32.682197	   0.000000; % NG
	2	 0.0	 0.0	 3	   0.000000	  43.201272	   0.000000; % NG
	2	 0.0	 0.0	 3	   0.000000	  99.185353	   0.000000; % PEL
	2	 0.0	 0.0	 3	   0.000000	  44.709576	   0.000000; % NG
	2	 0.0	 0.0	 3	   0.000000	   0.000000	   0.000000; % SYNC
	2	 0.0	 0.0	 3	   0.000000	   0.000000	   0.000000; % SYNC
	2	 0.0	 0.0	 3	   0.000000	 107.154842	   0.000000; % PEL
	2	 0.0	 0.0	 3	   0.000000	  22.126708	   0.000000; % NG
	2	 0.0	 0.0	 3	   0.000000	 110.200206	   0.000000; % PEL
	2	 0.0	 0.0	 3	   0.000000	  21.028681	   0.000000; % NG
	2	 0.0	 0.0	 3	   0.000000	  49.214731	   0.000000; % NG
	2	 0.0	 0.0	 3	   0.000000	 103.226922	   0.000000; % PEL
	2	 0.0	 0.0	 3	   0.000000	 114.113676	   0.000000; % PEL
	2	 0.0	 0.0	 3	   0.000000	 111.856160	   0.000000; % PEL
	2	 0.0	 0.0	 3	   0.000000	 100.708099	   0.000000; % PEL
	2	 0.0	 0.0	 3	   0.000000	 112.648630	   0.000000; % PEL
	2	 0.0	 0.0	 3	   0.000000	  15.902368	   0.000000; % COW
	2	 0.0	 0.0	 3	   0.000000	  52.157163	   0.000000; % NG
	2	 0.0	 0.0	 3	   0.000000	  33.281249	   0.000000; % NG
	2	 0.0	 0.0	 3	   0.000000	 107.373446	   0.000000; % PEL
	2	 0.0	 0.0	 3	   0.000000	  41.380567	   0.000000; % NG
	2	 0.0	 0.0	 3	   0.000000	  21.429155	   0.000000; % NG
	2	 0.0	 0.0	 3	   0.000000	  33.641328	   0.000000; % NG
	2	 0.0	 0.0	 3	   0.000000	  21.065015	   0.000000; % NG
	2	 0.0	 0.0	 3	   0.000000	  28.884585	   0.000000; % NG
	2	 0.0	 0.0	 3	   0.000000	  29.611076	   0.000000; % NG
	2	 0.0	 0.0	 3	   0.000000	  97.038261	   0.000000; % PEL
	2	 0.0	 0.0	 3	   0.000000	  41.423740	   0.000000; % NG
	2	 0.0	 0.0	 3	   0.000000	  15.214475	   0.000000; % NG
	2	 0.0	 0.0	 3	   0.000000	  34.270388	   0.000000; % NG
	2	 0.0	 0.0	 3	   0.000000	  35.720652	   0.000000; % NG
	2	 0.0	 0.0	 3	   0.000000	  47.404552	   0.000000; % NG
	2	 0.0	 0.0	 3	   0.000000	  29.607197	   0.000000; % NG
	2	 0.0	 0.0	 3	   0.000000	  34.430596	   0.000000; % NG
	2	 0.0	 0.0	 3	   0.000000	  16.733430	   0.000000; % NG
	2	 0.0	 0.0	 3	   0.000000	 115.624427	   0.000000; % PEL
	2	 0.0	 0.0	 3	   0.000000	 105.340402	   0.000000; % PEL
	2	 0.0	 0.0	 3	   0.000000	  40.111380	   0.000000; % NG
	2	 0.0	 0.0	 3	   0.000000	 125.429814	   0.000000; % PEL
	2	 0.0	 0.0	 3	   0.000000	  12.846056	   0.000000; % NG
	2	 0.0	 0.0	 3	   0.000000	  21.485381	   0.000000; % COW
	2	 0.0	 0.0	 3	   0.000000	  15.025122	   0.000000; % COW
	2	 0.0	 0.0	 3	   0.000000	  30.402417	   0.000000; % COW
	2	 0.0	 0.0	 3	   0.000000	  45.537009	   0.000000; % NG
	2	 0.0	 0.0	 3	   0.000000	 106.144639	   0.000000; % PEL
	2	 0.0	 0.0	 3	   0.000000	  47.740858	   0.000000; % NG
	2	 0.0	 0.0	 3	   0.000000	  34.382454	   0.000000; % NG
	2	 0.0	 0.0	 3	   0.000000	  34.286070	   0.000000; % COW
	2	 0.0	 0.0	 3	   0.000000	 118.753632	   0.000000; % PEL
	2	 0.0	 0.0	 3	   0.000000	  49.144417	   0.000000; % NG
	2	 0.0	 0.0	 3	   0.000000	  95.051989	   0.000000; % PEL
	2	 0.0	 0.0	 3	   0.000000	  34.320952	   0.000000; % NG
	2	 0.0	 0.0	 3	   0.000000	  39.421884	   0.000000; % NG
	2	 0.0	 0.0	 3	   0.000000	  97.588389	   0.000000; % PEL
	2	 0.0	 0.0	 3	   0.000000	 116.298354	   0.000000; % PEL
	2	 0.0	 0.0	 3	   0.000000	 110.050420	   0.000000; % PEL
	2	 0.0	 0.0	 3	   0.000000	  33.665482	   0.000000; % NG
	2	 0.0	 0.0	 3	   0.000000	  50.428964	   0.000000; % NG
	2	 0.0	 0.0	 3	   0.000000	  42.844648	   0.000000; % NG
	2	 0.0	 0.0	 3	   0.000000	  44.664680	   0.000000; % NG
	2	 0.0	 0.0	 3	   0.000000	  37.314561	   0.000000; % NG
	2	 0.0	 0.0	 3	   0.000000	  37.424900	   0.000000; % NG
	2	 0.0	 0.0	 3	   0.000000	 107.476686	   0.000000; % PEL
	2	 0.0	 0.0	 3	   0.000000	 112.031232	   0.000000; % PEL
	2	 0.0	 0.0	 3	   0.000000	  23.394024	   0.000000; % COW
	2	 0.0	 0.0	 3	   0.000000	  30.417268	   0.000000; % NG
	2	 0.0	 0.0	 3	   0.000000	  31.530774	   0.000000; % NG
	2	 0.0	 0.0	 3	   0.000000	  19.789937	   0.000000; % NG
	2	 0.0	 0.0	 3	   0.000000	  34.642733	   0.000000; % NG
	2	 0.0	 0.0	 3	   0.000000	  37.248529	   0.000000; % NG
	2	 0.0	 0.0	 3	   0.000000	 111.815061	   0.000000; % PEL
	2	 0.0	 0.0	 3	   0.000000	  47.672977	   0.000000; % NG
	2	 0.0	 0.0	 3	   0.000000	 126.982832	   0.000000; % PEL
	2	 0.0	 0.0	 3	   0.000000	  31.150494	   0.000000; % NG
	2	 0.0	 0.0	 3	   0.000000	  31.341177	   0.000000; % NG
	2	 0.0	 0.0	 3	   0.000000	  22.658011	   0.000000; % COW
	2	 0.0	 0.0	 3	   0.000000	 105.745883	   0.000000; % PEL
	2	 0.0	 0.0	 3	   0.000000	  43.889667	   0.000000; % NG
	2	 0.0	 0.0	 3	   0.000000	 116.415985	   0.000000; % PEL
	2	 0.0	 0.0	 3	   0.000000	  47.729573	   0.000000; % NG
	2	 0.0	 0.0	 3	   0.000000	  54.351772	   0.000000; % NG
	2	 0.0	 0.0	 3	   0.000000	  17.527648	   0.000000; % NG
	2	 0.0	 0.0	 3	   0.000000	  49.460931	   0.000000; % NG
	2	 0.0	 0.0	 3	   0.000000	  53.399727	   0.000000; % NG
	2	 0.0	 0.0	 3	   0.000000	  22.369194	   0.000000; % NG
	2	 0.0	 0.0	 3	   0.000000	  25.996049	   0.000000; % COW
	2	 0.0	 0.0	 3	   0.000000	  42.670952	   0.000000; % NG
	2	 0.0	 0.0	 3	   0.000000	  36.871201	   0.000000; % NG
	2	 0.0	 0.0	 3	   0.000000	 108.579564	   0.000000; % PEL
	2	 0.0	 0.0	 3	   0.000000	  49.576855	   0.000000; % NG
	2	 0.0	 0.0	 3	   0.000000	  21.550069	   0.000000; % NG
	2	 0.0	 0.0	 3	   0.000000	  33.795537	   0.000000; % NG
	2	 0.0	 0.0	 3	   0.000000	 108.559824	   0.000000; % PEL
	2	 0.0	 0.0	 3	   0.000000	 123.215905	   0.000000; % PEL
	2	 0.0	 0.0	 3	   0.000000	 110.716487	   0.000000; % PEL
	2	 0.0	 0.0	 3	   0.000000	  43.225307	   0.000000; % NG
	2	 0.0	 0.0	 3	   0.000000	  32.888565	   0.000000; % NG
	2	 0.0	 0.0	 3	   0.000000	  23.351447	   0.000000; % NG
	2	 0.0	 0.0	 3	   0.000000	  34.291115	   0.000000; % NG
	2	 0.0	 0.0	 3	   0.000000	 111.264681	   0.000000; % PEL
	2	 0.0	 0.0	 3	   0.000000	  41.478238	   0.000000; % NG
	2	 0.0	 0.0	 3	   0.000000	  49.955760	   0.000000; % NG
	2	 0.0	 0.0	 3	   0.000000	  40.397864	   0.000000; % NG
	2	 0.0	 0.0	 3	   0.000000	  28.479741	   0.000000; % NG
	2	 0.0	 0.0	 3	   0.000000	 109.477258	   0.000000; % PEL
	2	 0.0	 0.0	 3	   0.000000	 101.034318	   0.000000; % PEL
	2	 0.0	 0.0	 3	   0.000000	  38.116001	   0.000000; % NG
	2	 0.0	 0.0	 3	   0.000000	 113.700924	   0.000000; % PEL
	2	 0.0	 0.0	 3	   0.000000	  38.090042	   0.000000; % COW
	2	 0.0	 0.0	 3	   0.000000	 116.103190	   0.000000; % PEL
	2	 0.0	 0.0	 3	   0.000000	  30.049675	   0.000000; % NG
	2	 0.0	 0.0	 3	   0.000000	  91.065151	   0.000000; % PEL
	2	 0.0	 0.0	 3	   0.000000	 113.340308	   0.000000; % PEL
	2	 0.0	 0.0	 3	   0.000000	  39.447435	   0.000000; % COW
	2	 0.0	 0.0	 3	   0.000000	  31.460049	   0.000000; % NG
	2	 0.0	 0.0	 3	   0.000000	 108.209898	   0.000000; % PEL
	2	 0.0	 0.0	 3	   0.000000	  14.100324	   0.000000; % COW
	2	 0.0	 0.0	 3	   0.000000	  33.687083	   0.000000; % NG
	2	 0.0	 0.0	 3	   0.000000	 117.028476	   0.000000; % PEL
	2	 0.0	 0.0	 3	   0.000000	  51.973804	   0.000000; % NG
	2	 0.0	 0.0	 3	   0.000000	  56.873140	   0.000000; % NG
	2	 0.0	 0.0	 3	   0.000000	  15.666793	   0.000000; % NG
	2	 0.0	 0.0	 3	   0.000000	  32.564503	   0.000000; % NG
	2	 0.0	 0.0	 3	   0.000000	  95.867748	   0.000000; % PEL
	2	 0.0	 0.0	 3	   0.000000	  35.015386	   0.000000; % COW
	2	 0.0	 0.0	 3	   0.000000	  36.300428	   0.000000; % NG
	2	 0.0	 0.0	 3	   0.000000	  99.832710	   0.000000; % PEL
	2	 0.0	 0.0	 3	   0.000000	  35.391841	   0.000000; % NG
	2	 0.0	 0.0	 3	   0.000000	  97.701407	   0.000000; % PEL
	2	 0.0	 0.0	 3	   0.000000	  29.477873	   0.000000; % NG
	2	 0.0	 0.0	 3	   0.000000	  29.478832	   0.000000; % NG
	2	 0.0	 0.0	 3	   0.000000	  38.474634	   0.000000; % NG
	2	 0.0	 0.0	 3	   0.000000	  38.431478	   0.000000; % NG
	2	 0.0	 0.0	 3	   0.000000	 117.338369	   0.000000; % PEL
	2	 0.0	 0.0	 3	   0.000000	  12.619040	   0.000000; % COW
	2	 0.0	 0.0	 3	   0.000000	 113.186506	   0.000000; % PEL
	2	 0.0	 0.0	 3	   0.000000	 113.393834	   0.000000; % PEL
...
];

%% branch data
%	fbus	tbus	r	x	b	rateA	rateB	rateC	ratio	angle	status	angmin	angmax
mpc.branch = [
	4647	 1	 0.005726	 0.010482	 0.0	 2186	 2186	 2186	 0.0	 0.0	 1	 -30.0	 30.0;
	5244	 1	 0.01284	 0.025679	 0.0	 910	 910	 910	 0.0	 0.0	 1	 -30.0	 30.0;
	1682	 2	 0.005799	 0.010615	 0.0075	 2441	 2441	 2441	 0.0	 0.0	 1	 -30.0	 30.0;
	1673	 3	 0.134039	 0.309398	 0.0035	 91	 91	 91	 0.0	 0.0	 1	 -30.0	 30.0;
	2303	 3	 0.049131	 0.133283	 0.0015	 215	 215	 215	 0.0	 0.0	 1	 -30.0	 30.0;
	700	 4	 0.025926	 0.109136	 0.0002	 281	 281	 281	 0.0	 0.0	 1	 -30.0	 30.0;
	3939	 4	 0.05	 0.126914	 0.0006	 226	 226	 226	 0.0	 0.0	 1	 -30.0	 30.0;
	5046	 4	 0.02321	 0.097407	 0.0016	 315	 315	 315	 0.0	 0.0	 1	 -30.0	 30.0;
	4413	 5	 0.040564	 0.113631	 0.0013	 245	 245	 245	 0.0	 0.0	 1	 -30.0	 30.0;
	2779	 6	 0.006047	 0.020912	 0.0222	 1398	 1398	 1398	 0.0	 0.0	 1	 -30.0	 30.0;
	2780	 7	 0.012472	 0.032099	 0.0061	 884	 884	 884	 0.0	 0.0	 1	 -30.0	 30.0;
	2466	 8	 0.002607	 0.017462	 0.0324	 540.0	 540.0	 540.0	 0.0	 0.0	 1	 -30.0	 30.0;
	470	 9	 0.053893	 0.14258	 0.0017	 194	 194	 194	 0.0	 0.0	 1	 -30.0	 30.0;
	11	 10	 0.000247	 0.001235	 0.0005	 24078	 24078	 24078	 0.0	 0.0	 1	 -30.0	 30.0;
	11	 10	 0.000247	 0.001235	 0.0002	 24078	 24078	 24078	 0.0	 0.0	 1	 -30.0	 30.0;
	30	 11	 0.039753	 0.100988	 0.0047	 284	 284	 284	 0.0	 0.0	 1	 -30.0	 30.0;
	2929	 11	 0.037654	 0.096173	 0.001	 294	 294	 294	 0.0	 0.0	 1	 -30.0	 30.0;
	2181	 12	 0.014613	 0.060721	 0.0008	 487	 487	 487	 0.0	 0.0	 1	 -30.0	 30.0;
	4017	 12	 0.034064	 0.121139	 0.0015	 242	 242	 242	 0.0	 0.0	 1	 -30.0	 30.0;
	4019	 12	 0.000242	 0.000442	 0.0004	 60355	 60355	 60355	 0.0	 0.0	 1	 -30.0	 30.0;
	115	 13	 2.1e-05	 0.000125	 0.1386	 737.0	 737.0	 737.0	 0.0	 0.0	 1	 -30.0	 30.0;
	2337	 13	 0.000145	 0.001877	 0.0635	 2487.0	 2487.0	 2487.0	 0.0	 0.0	 1	 -30.0	 30.0;
	4577	 13	 0.000319	 0.003234	 0.0838	 1841.0	 1841.0	 1841.0	 0.0	 0.0	 1	 -30.0	 30.0;
	116	 13	 2.1e-05	 0.000125	 0.1386	 737.0	 737.0	 737.0	 0.0	 0.0	 1	 -30.0	 30.0;
	1225	 14	 0.04	 0.134198	 0.0274	 217	 217	 217	 0.0	 0.0	 1	 -30.0	 30.0;
	2874	 14	 0.012222	 0.052346	 0.0026	 565	 565	 565	 0.0	 0.0	 1	 -30.0	 30.0;
	4595	 14	 0.007284	 0.045432	 0.0024	 660	 660	 660	 0.0	 0.0	 1	 -30.0	 30.0;
	4955	 14	 0.059963	 0.154222	 0.0236	 184	 184	 184	 0.0	 0.0	 1	 -30.0	 30.0;
	5230	 14	 0.018025	 0.110988	 0.0073	 270	 270	 270	 0.0	 0.0	 1	 -30.0	 30.0;
	2874	 14	 0.012222	 0.052593	 0.0032	 562	 562	 562	 0.0	 0.0	 1	 -30.0	 30.0;
	4595	 14	 0.007284	 0.044938	 0.0024	 667	 667	 667	 0.0	 0.0	 1	 -30.0	 30.0;
	2906	 15	 0.037541	 0.100529	 0.0011	 284	 284	 284	 0.0	 0.0	 1	 -30.0	 30.0;
	4124	 15	 0.090199	 0.211388	 0.0023	 133	 133	 133	 0.0	 0.0	 1	 -30.0	 30.0;
	4455	 15	 0.09801	 0.267574	 0.0	 107	 107	 107	 0.0	 0.0	 1	 -30.0	 30.0;
	249	 16	 0.071806	 0.191484	 0.0019	 149	 149	 149	 0.0	 0.0	 1	 -30.0	 30.0;
	337	 16	 0.119174	 0.284958	 0.0044	 99	 99	 99	 0.0	 0.0	 1	 -30.0	 30.0;
	5834	 17	 0.022346	 0.061111	 0.0029	 457	 457	 457	 0.0	 0.0	 1	 -30.0	 30.0;
	3727	 18	 0.009383	 0.019753	 0.0	 1194	 1194	 1194	 0.0	 0.0	 1	 -30.0	 30.0;
	5094	 19	 0.000252	 0.000504	 0.0	 52398	 52398	 52398	 0.0	 0.0	 1	 -30.0	 30.0;
	3727	 20	 0.001975	 0.004444	 0.0	 5369	 5369	 5369	 0.0	 0.0	 1	 -30.0	 30.0;
	1354	 21	 0.036296	 0.099012	 0.0045	 282	 282	 282	 0.0	 0.0	 1	 -30.0	 30.0;
	1598	 21	 0.032716	 0.089136	 0.0057	 313	 313	 313	 0.0	 0.0	 1	 -30.0	 30.0;
	1843	 22	 0.138574	 0.351474	 0.0058	 81	 81	 81	 0.0	 0.0	 1	 -30.0	 30.0;
	5023	 22	 0.094407	 0.210456	 0.0044	 132	 132	 132	 0.0	 0.0	 1	 -30.0	 30.0;
	1157	 23	 0.047115	 0.117158	 0.001	 234	 234	 234	 0.0	 0.0	 1	 -30.0	 30.0;
	2703	 23	 0.039557	 0.120937	 0.0132	 233	 233	 233	 0.0	 0.0	 1	 -30.0	 30.0;
	3425	 23	 0.022676	 0.062484	 0.0007	 445	 445	 445	 0.0	 0.0	 1	 -30.0	 30.0;
	144	 24	 0.064568	 0.16716	 0.0113	 180	 180	 180	 0.0	 0.0	 1	 -30.0	 30.0;
	1282	 24	 0.048605	 0.128481	 0.0062	 235	 235	 235	 0.0	 0.0	 1	 -30.0	 30.0;
	490	 25	 0.004815	 0.02963	 0.0016	 1048	 1048	 1048	 0.0	 0.0	 1	 -30.0	 30.0;
	2093	 25	 0.007309	 0.04463	 0.0073	 710	 710	 710	 0.0	 0.0	 1	 -30.0	 30.0;
	612	 26	 0.034321	 0.145802	 0.0073	 199	 199	 199	 0.0	 0.0	 1	 -30.0	 30.0;
	1866	 26	 0.004815	 0.009753	 0.0005	 2731	 2731	 2731	 0.0	 0.0	 1	 -30.0	 30.0;
	2602	 26	 0.049012	 0.133704	 0.0063	 209	 209	 209	 0.0	 0.0	 1	 -30.0	 30.0;
	2922	 26	 0.04642	 0.126543	 0.0058	 221	 221	 221	 0.0	 0.0	 1	 -30.0	 30.0;
	3339	 26	 0.046296	 0.125926	 0.006	 222	 222	 222	 0.0	 0.0	 1	 -30.0	 30.0;
	4632	 26	 0.053704	 0.136753	 0.0065	 203	 203	 203	 0.0	 0.0	 1	 -30.0	 30.0;
	2922	 26	 0.03358	 0.120988	 0.0062	 237	 237	 237	 0.0	 0.0	 1	 -30.0	 30.0;
	536	 27	 0.006163	 0.041067	 0.0759	 446.0	 446.0	 446.0	 0.0	 0.0	 1	 -30.0	 30.0;
	2350	 27	 0.000652	 0.004369	 0.0081	 558.0	 558.0	 558.0	 0.0	 0.0	 1	 -30.0	 30.0;
	2684	 28	 0.050945	 0.131922	 0.0015	 216	 216	 216	 0.0	 0.0	 1	 -30.0	 30.0;
	3892	 28	 0.058781	 0.149005	 0.0017	 190	 190	 190	 0.0	 0.0	 1	 -30.0	 30.0;
	2887	 29	 0.067019	 0.137566	 0.0037	 193	 193	 193	 0.0	 0.0	 1	 -30.0	 30.0;
	3321	 29	 0.032754	 0.088939	 0.0039	 312	 312	 312	 0.0	 0.0	 1	 -30.0	 30.0;
	3321	 29	 0.030184	 0.080096	 0.0053	 345	 345	 345	 0.0	 0.0	 1	 -30.0	 30.0;
	144	 30	 0.066049	 0.187778	 0.0099	 161	 161	 161	 0.0	 0.0	 1	 -30.0	 30.0;
	1553	 30	 0.065062	 0.133704	 0.0062	 212	 212	 212	 0.0	 0.0	 1	 -30.0	 30.0;
	4841	 30	 0.041728	 0.106049	 0.005	 281	 281	 281	 0.0	 0.0	 1	 -30.0	 30.0;
	150	 31	 0.009574	 0.03875	 0.0114	 740	 740	 740	 0.0	 0.0	 1	 -30.0	 30.0;
	3162	 31	 0.000171	 0.000313	 0.0002	 82782	 82782	 82782	 0.0	 0.0	 1	 -30.0	 30.0;
	3692	 31	 0.034266	 0.09423	 0.001	 295	 295	 295	 0.0	 0.0	 1	 -30.0	 30.0;
	4741	 31	 0.006803	 0.028219	 0.0	 1018	 1018	 1018	 0.0	 0.0	 1	 -30.0	 30.0;
	150	 31	 0.008566	 0.037541	 0.0121	 767	 767	 767	 0.0	 0.0	 1	 -30.0	 30.0;
	3729	 32	 0.009733	 0.034089	 0.0185	 902	 902	 902	 0.0	 0.0	 1	 -30.0	 30.0;
	366	 34	 0.000277	 0.002015	 0.003	 288.0	 288.0	 288.0	 0.0	 0.0	 1	 -30.0	 30.0;
	1017	 33	 0.00881	 0.033995	 0.0607	 289.0	 289.0	 289.0	 0.0	 0.0	 1	 -30.0	 30.0;
	1158	 33	 0.004642	 0.019832	 0.0354	 255.0	 255.0	 255.0	 0.0	 0.0	 1	 -30.0	 30.0;
	2580	 34	 0.008861	 0.03506	 0.0623	 288.0	 288.0	 288.0	 0.0	 0.0	 1	 -30.0	 30.0;
	2704	 34	 0.006993	 0.032869	 0.0557	 255.0	 255.0	 255.0	 0.0	 0.0	 1	 -30.0	 30.0;
	4746	 33	 0.002173	 0.008731	 0.0152	 3441	 3441	 3441	 0.0	 0.0	 1	 -30.0	 30.0;
	4858	 34	 0.00077	 0.003121	 0.0051	 9629	 9629	 9629	 0.0	 0.0	 1	 -30.0	 30.0;
	5671	 33	 0.004109	 0.016138	 0.0284	 288.0	 288.0	 288.0	 0.0	 0.0	 1	 -30.0	 30.0;
	368	 35	 8.3e-05	 0.000907	 0.0202	 1034.0	 1034.0	 1034.0	 0.0	 0.0	 1	 -30.0	 30.0;
	1109	 35	 0.000552	 0.006726	 0.0939	 1786.0	 1786.0	 1786.0	 0.0	 0.0	 1	 -30.0	 30.0;
	2150	 35	 0.000512	 0.008012	 0.2455	 2462.0	 2462.0	 2462.0	 0.0	 0.0	 1	 -30.0	 30.0;
	3135	 35	 0.001107	 0.00918	 0.1906	 1644.0	 1644.0	 1644.0	 0.0	 0.0	 1	 -30.0	 30.0;
	367	 36	 6.2e-05	 0.000741	 0.0173	 1095.0	 1095.0	 1095.0	 0.0	 0.0	 1	 -30.0	 30.0;
	2150	 35	 0.000512	 0.008019	 0.2455	 2462.0	 2462.0	 2462.0	 0.0	 0.0	 1	 -30.0	 30.0;
	2150	 36	 0.001153	 0.013123	 0.1841	 1433.0	 1433.0	 1433.0	 0.0	 0.0	 1	 -30.0	 30.0;
	5229	 37	 0.055933	 0.120685	 0.0013	 229	 229	 229	 0.0	 0.0	 1	 -30.0	 30.0;
	5515	 37	 0.039053	 0.084404	 0.001	 328	 328	 328	 0.0	 0.0	 1	 -30.0	 30.0;
	730	 38	 0.00252	 0.006551	 0.0001	 4462	 4462	 4462	 0.0	 0.0	 1	 -30.0	 30.0;
	1229	 39	 0.009877	 0.042222	 0.0021	 697	 697	 697	 0.0	 0.0	 1	 -30.0	 30.0;
	5809	 39	 0.024815	 0.063086	 0.0029	 446	 446	 446	 0.0	 0.0	 1	 -30.0	 30.0;
	1229	 39	 0.009877	 0.042222	 0.0021	 697	 697	 697	 0.0	 0.0	 1	 -30.0	 30.0;
	2251	 40	 0.056173	 0.142593	 0.0066	 198	 198	 198	 0.0	 0.0	 1	 -30.0	 30.0;
	4595	 40	 0.034444	 0.109012	 0.0076	 266	 266	 266	 0.0	 0.0	 1	 -30.0	 30.0;
	430	 41	 0.000158	 0.000672	 0.0719	 331.0	 331.0	 331.0	 0.0	 0.0	 1	 -30.0	 30.0;
	3953	 41	 4.5e-05	 8.9e-05	 0.002	 268.0	 268.0	 268.0	 0.0	 0.0	 1	 -30.0	 30.0;
	1484	 42	 0.01096	 0.020063	 0.009	 1461	 1461	 1461	 0.0	 0.0	 1	 -30.0	 30.0;
	2765	 42	 0.002268	 0.008818	 0.0099	 3668	 3668	 3668	 0.0	 0.0	 1	 -30.0	 30.0;
	2724	 43	 0.001481	 0.006296	 0.0039	 4689	 4689	 4689	 0.0	 0.0	 1	 -30.0	 30.0;
	3488	 44	 0.050617	 0.137012	 0.009	 203	 203	 203	 0.0	 0.0	 1	 -30.0	 30.0;
	4322	 44	 0.074326	 0.194507	 0.0021	 142	 142	 142	 0.0	 0.0	 1	 -30.0	 30.0;
	5097	 45	 0.000247	 0.000741	 0.0	 38027	 38027	 38027	 0.0	 0.0	 1	 -30.0	 30.0;
	1085	 46	 0.049131	 0.134039	 0.001	 207	 207	 207	 0.0	 0.0	 1	 -30.0	 30.0;
	2194	 46	 0.033258	 0.090955	 0.001	 305	 305	 305	 0.0	 0.0	 1	 -30.0	 30.0;
	3305	 46	 0.067437	 0.123442	 0.001	 210	 210	 210	 0.0	 0.0	 1	 -30.0	 30.0;
	1085	 47	 0.037289	 0.118166	 0.001	 239	 239	 239	 0.0	 0.0	 1	 -30.0	 30.0;
	5363	 48	 0.021358	 0.057037	 0.0005	 573	 573	 573	 0.0	 0.0	 1	 -30.0	 30.0;
	1223	 49	 0.071303	 0.180902	 0.0021	 152	 152	 152	 0.0	 0.0	 1	 -30.0	 30.0;
	2345	 49	 0.071554	 0.18191	 0.0021	 152	 152	 152	 0.0	 0.0	 1	 -30.0	 30.0;
	470	 50	 0.028193	 0.104535	 0.0013	 275	 275	 275	 0.0	 0.0	 1	 -30.0	 30.0;
	1676	 50	 0.055404	 0.171429	 0.01	 166	 166	 166	 0.0	 0.0	 1	 -30.0	 30.0;
	3553	 50	 0.010834	 0.071554	 0.001	 412	 412	 412	 0.0	 0.0	 1	 -30.0	 30.0;
	4629	 50	 0.013857	 0.030234	 0.0003	 896	 896	 896	 0.0	 0.0	 1	 -30.0	 30.0;
	3553	 50	 0.011414	 0.070648	 0.0009	 417	 417	 417	 0.0	 0.0	 1	 -30.0	 30.0;
	4629	 50	 0.013757	 0.030108	 0.0003	 900	 900	 900	 0.0	 0.0	 1	 -30.0	 30.0;
	1196	 51	 0.00478	 0.028622	 0.0547	 455.0	 455.0	 455.0	 0.0	 0.0	 1	 -30.0	 30.0;
	1197	 51	 0.00478	 0.028583	 0.0547	 455.0	 455.0	 455.0	 0.0	 0.0	 1	 -30.0	 30.0;
	166	 52	 0.01284	 0.032716	 0.0015	 846	 846	 846	 0.0	 0.0	 1	 -30.0	 30.0;
	5489	 52	 0.014198	 0.036049	 0.0016	 767	 767	 767	 0.0	 0.0	 1	 -30.0	 30.0;
	3349	 53	 0.005291	 0.021668	 0.0003	 1285	 1285	 1285	 0.0	 0.0	 1	 -30.0	 30.0;
	2769	 54	 0.01358	 0.047654	 0.0023	 600	 600	 600	 0.0	 0.0	 1	 -30.0	 30.0;
	373	 55	 0.000257	 0.000514	 0.0294	 53862	 53862	 53862	 0.0	 0.0	 1	 -30.0	 30.0;
	2693	 56	 0.000257	 0.002153	 0.2147	 452.0	 452.0	 452.0	 0.0	 0.0	 1	 -30.0	 30.0;
	3427	 56	 0.000277	 0.000869	 0.0931	 481.0	 481.0	 481.0	 0.0	 0.0	 1	 -30.0	 30.0;
	5098	 57	 0.000756	 0.00252	 0.0	 11560	 11560	 11560	 0.0	 0.0	 1	 -30.0	 30.0;
	3390	 58	 0.000237	 0.00083	 0.1863	 268.0	 268.0	 268.0	 0.0	 0.0	 1	 -30.0	 30.0;
	3565	 58	 0.000178	 0.000612	 0.1377	 268.0	 268.0	 268.0	 0.0	 0.0	 1	 -30.0	 30.0;
	142	 59	 0.030486	 0.076342	 0.002	 370	 370	 370	 0.0	 0.0	 1	 -30.0	 30.0;
	1652	 59	 0.011086	 0.024691	 0.0015	 1124	 1124	 1124	 0.0	 0.0	 1	 -30.0	 30.0;
	2476	 60	 0.044344	 0.170572	 0.0021	 173	 173	 173	 0.0	 0.0	 1	 -30.0	 30.0;
	3525	 60	 0.036709	 0.151776	 0.0017	 195	 195	 195	 0.0	 0.0	 1	 -30.0	 30.0;
	2228	 61	 0.017788	 0.048551	 0.0006	 589	 589	 589	 0.0	 0.0	 1	 -30.0	 30.0;
	2634	 61	 0.057521	 0.145251	 0.0017	 195	 195	 195	 0.0	 0.0	 1	 -30.0	 30.0;
	2048	 62	 0.014109	 0.057949	 0.0029	 510	 510	 510	 0.0	 0.0	 1	 -30.0	 30.0;
	2950	 62	 0.007055	 0.02973	 0.0014	 996	 996	 996	 0.0	 0.0	 1	 -30.0	 30.0;
	371	 63	 0.024263	 0.065911	 0.0007	 434	 434	 434	 0.0	 0.0	 1	 -30.0	 30.0;
	3081	 63	 0.020912	 0.059209	 0.0016	 485	 485	 485	 0.0	 0.0	 1	 -30.0	 30.0;
	145	 64	 0.002568	 0.011753	 0.0203	 424.0	 424.0	 424.0	 0.0	 0.0	 1	 -30.0	 30.0;
	5108	 64	 0.002568	 0.011615	 0.0228	 290.0	 290.0	 290.0	 0.0	 0.0	 1	 -30.0	 30.0;
	4607	 65	 0.006299	 0.033585	 0.0599	 891	 891	 891	 0.0	 0.0	 1	 -30.0	 30.0;
	4607	 65	 0.006299	 0.033661	 0.06	 889	 889	 889	 0.0	 0.0	 1	 -30.0	 30.0;
	1546	 66	 0.102293	 0.226757	 0.0025	 119	 119	 119	 0.0	 0.0	 1	 -30.0	 30.0;
	2292	 66	 0.177551	 0.405291	 0.0046	 67	 67	 67	 0.0	 0.0	 1	 -30.0	 30.0;
	3249	 66	 0.088264	 0.161566	 0.0017	 161	 161	 161	 0.0	 0.0	 1	 -30.0	 30.0;
	3030	 67	 0.007307	 0.014613	 0.0002	 1862	 1862	 1862	 0.0	 0.0	 1	 -30.0	 30.0;
	2883	 68	 0.067775	 0.139834	 0.001	 191	 191	 191	 0.0	 0.0	 1	 -30.0	 30.0;
	4537	 68	 0.047367	 0.16125	 0.0021	 176	 176	 176	 0.0	 0.0	 1	 -30.0	 30.0;
	5151	 68	 0.004031	 0.016629	 0.001	 1726	 1726	 1726	 0.0	 0.0	 1	 -30.0	 30.0;
	4610	 69	 0.073066	 0.205089	 0.0022	 136	 136	 136	 0.0	 0.0	 1	 -30.0	 30.0;
	5099	 70	 4.8e-05	 8.8e-05	 0.0001	 303410	 303410	 303410	 0.0	 0.0	 1	 -30.0	 30.0;
...